<?xml version="1.0" encoding="UTF-8"?>
<additional>
  <poi id="edu_100" lon="-1.088672" lat="46.069198" type="education"/>
  <poi id="edu_101" lon="-1.087740" lat="46.081958" type="education"/>
  <poi id="edu_102" lon="-1.087539" lat="46.079260" type="education"/>
  <poi id="edu_103" lon="-1.087661" lat="46.081521" type="education"/>
  <poi id="edu_104" lon="-1.087661" lat="46.081521" type="education"/>
  <poi id="edu_11" lon="-1.110654" lat="46.106119" type="education"/>
  <poi id="edu_1139" lon="-1.114200" lat="46.185201" type="education"/>
  <poi id="edu_119" lon="-1.028044" lat="46.140672" type="education"/>
  <poi id="edu_1223" lon="-1.060809" lat="46.145735" type="education"/>
  <poi id="edu_1236" lon="-1.016323" lat="46.192897" type="education"/>
  <poi id="edu_147" lon="-1.007476" lat="46.110086" type="education"/>
  <poi id="edu_1489" lon="-1.152646" lat="46.186806" type="education"/>
  <poi id="edu_153" lon="-1.060563" lat="46.187529" type="education"/>
  <poi id="edu_154" lon="-1.058430" lat="46.188115" type="education"/>
  <poi id="edu_166" lon="-1.114558" lat="46.249607" type="education"/>
  <poi id="edu_1757" lon="-1.105702" lat="46.106812" type="education"/>
  <poi id="edu_1774" lon="-1.114173" lat="46.134462" type="education"/>
  <poi id="edu_1847" lon="-1.037510" lat="46.142611" type="education"/>
  <poi id="edu_1925" lon="-1.011385" lat="46.124267" type="education"/>
  <poi id="edu_1971" lon="-1.017388" lat="46.154750" type="education"/>
  <poi id="edu_199" lon="-1.186974" lat="46.193760" type="education"/>
  <poi id="edu_2013" lon="-1.114200" lat="46.185201" type="education"/>
  <poi id="edu_202" lon="-1.069900" lat="46.129879" type="education"/>
  <poi id="edu_204" lon="-1.006240" lat="46.127945" type="education"/>
  <poi id="edu_207" lon="-1.006240" lat="46.127945" type="education"/>
  <poi id="edu_2122" lon="-1.091151" lat="46.212705" type="education"/>
  <poi id="edu_217" lon="-1.157736" lat="46.184915" type="education"/>
  <poi id="edu_219" lon="-1.157599" lat="46.183117" type="education"/>
  <poi id="edu_220" lon="-1.171019" lat="46.171804" type="education"/>
  <poi id="edu_221" lon="-1.146756" lat="46.184835" type="education"/>
  <poi id="edu_222" lon="-1.146756" lat="46.184835" type="education"/>
  <poi id="edu_223" lon="-1.146772" lat="46.183703" type="education"/>
  <poi id="edu_296" lon="-1.172257" lat="46.205123" type="education"/>
  <poi id="edu_297" lon="-1.162169" lat="46.209100" type="education"/>
  <poi id="edu_298" lon="-1.180028" lat="46.204837" type="education"/>
  <poi id="edu_306" lon="-1.097137" lat="46.155779" type="education"/>
  <poi id="edu_307" lon="-1.112559" lat="46.168583" type="education"/>
  <poi id="edu_308" lon="-1.102265" lat="46.156761" type="education"/>
  <poi id="edu_309" lon="-1.084930" lat="46.154653" type="education"/>
  <poi id="edu_31" lon="-1.136284" lat="46.141514" type="education"/>
  <poi id="edu_310" lon="-1.107007" lat="46.156493" type="education"/>
  <poi id="edu_311" lon="-1.107007" lat="46.156493" type="education"/>
  <poi id="edu_312" lon="-1.112029" lat="46.164037" type="education"/>
  <poi id="edu_370" lon="-0.955820" lat="45.941476" type="education"/>
  <poi id="edu_371" lon="-0.963607" lat="45.967523" type="education"/>
  <poi id="edu_372" lon="-0.960456" lat="45.954463" type="education"/>
  <poi id="edu_374" lon="-0.967013" lat="45.930238" type="education"/>
  <poi id="edu_377" lon="-0.987883" lat="45.949372" type="education"/>
  <poi id="edu_379" lon="-1.150990" lat="46.164422" type="education"/>
  <poi id="edu_381" lon="-1.147736" lat="46.174350" type="education"/>
  <poi id="edu_382" lon="-1.120307" lat="46.153122" type="education"/>
  <poi id="edu_383" lon="-1.199944" lat="46.167529" type="education"/>
  <poi id="edu_385" lon="-1.174069" lat="46.166742" type="education"/>
  <poi id="edu_386" lon="-1.147857" lat="46.157323" type="education"/>
  <poi id="edu_389" lon="-1.132358" lat="46.154386" type="education"/>
  <poi id="edu_390" lon="-1.145106" lat="46.147602" type="education"/>
  <poi id="edu_391" lon="-1.142595" lat="46.141485" type="education"/>
  <poi id="edu_394" lon="-1.166384" lat="46.162055" type="education"/>
  <poi id="edu_396" lon="-1.150296" lat="46.165263" type="education"/>
  <poi id="edu_398" lon="-1.133697" lat="46.171989" type="education"/>
  <poi id="edu_400" lon="-1.140154" lat="46.163268" type="education"/>
  <poi id="edu_401" lon="-1.149154" lat="46.165117" type="education"/>
  <poi id="edu_402" lon="-1.127043" lat="46.154232" type="education"/>
  <poi id="edu_403" lon="-1.150296" lat="46.165263" type="education"/>
  <poi id="edu_404" lon="-1.147898" lat="46.174203" type="education"/>
  <poi id="edu_405" lon="-1.120314" lat="46.152893" type="education"/>
  <poi id="edu_407" lon="-1.180079" lat="46.171471" type="education"/>
  <poi id="edu_408" lon="-1.143296" lat="46.148472" type="education"/>
  <poi id="edu_409" lon="-1.174069" lat="46.166742" type="education"/>
  <poi id="edu_410" lon="-1.178965" lat="46.161398" type="education"/>
  <poi id="edu_412" lon="-1.142607" lat="46.141398" type="education"/>
  <poi id="edu_414" lon="-1.183757" lat="46.169801" type="education"/>
  <poi id="edu_415" lon="-1.168015" lat="46.159347" type="education"/>
  <poi id="edu_417" lon="-1.175820" lat="46.163273" type="education"/>
  <poi id="edu_420" lon="-1.178648" lat="46.169720" type="education"/>
  <poi id="edu_421" lon="-1.134708" lat="46.172230" type="education"/>
  <poi id="edu_422" lon="-1.172786" lat="46.160918" type="education"/>
  <poi id="edu_423" lon="-1.116581" lat="46.151995" type="education"/>
  <poi id="edu_424" lon="-1.150899" lat="46.164069" type="education"/>
  <poi id="edu_425" lon="-1.150296" lat="46.165263" type="education"/>
  <poi id="edu_426" lon="-1.140752" lat="46.144609" type="education"/>
  <poi id="edu_427" lon="-1.177619" lat="46.156231" type="education"/>
  <poi id="edu_428" lon="-1.160183" lat="46.148756" type="education"/>
  <poi id="edu_429" lon="-1.153800" lat="46.164504" type="education"/>
  <poi id="edu_430" lon="-1.151294" lat="46.177428" type="education"/>
  <poi id="edu_431" lon="-1.196630" lat="46.167253" type="education"/>
  <poi id="edu_432" lon="-1.150296" lat="46.165263" type="education"/>
  <poi id="edu_434" lon="-1.138867" lat="46.158553" type="education"/>
  <poi id="edu_435" lon="-1.125008" lat="46.161682" type="education"/>
  <poi id="edu_438" lon="-1.162362" lat="46.143266" type="education"/>
  <poi id="edu_439" lon="-1.151294" lat="46.177428" type="education"/>
  <poi id="edu_440" lon="-1.150296" lat="46.165263" type="education"/>
  <poi id="edu_441" lon="-1.158145" lat="46.148947" type="education"/>
  <poi id="edu_442" lon="-1.155935" lat="46.140638" type="education"/>
  <poi id="edu_443" lon="-1.158048" lat="46.140775" type="education"/>
  <poi id="edu_444" lon="-1.159470" lat="46.140405" type="education"/>
  <poi id="edu_445" lon="-1.146479" lat="46.161131" type="education"/>
  <poi id="edu_446" lon="-1.125766" lat="46.161391" type="education"/>
  <poi id="edu_447" lon="-1.144043" lat="46.158364" type="education"/>
  <poi id="edu_448" lon="-1.152070" lat="46.138203" type="education"/>
  <poi id="edu_449" lon="-1.150296" lat="46.165263" type="education"/>
  <poi id="edu_450" lon="-1.153633" lat="46.139870" type="education"/>
  <poi id="edu_451" lon="-1.152807" lat="46.139576" type="education"/>
  <poi id="edu_452" lon="-1.158685" lat="46.146106" type="education"/>
  <poi id="edu_453" lon="-1.152111" lat="46.141798" type="education"/>
  <poi id="edu_454" lon="-1.154402" lat="46.140105" type="education"/>
  <poi id="edu_455" lon="-1.154698" lat="46.148559" type="education"/>
  <poi id="edu_456" lon="-1.154698" lat="46.148559" type="education"/>
  <poi id="edu_457" lon="-1.153427" lat="46.151846" type="education"/>
  <poi id="edu_458" lon="-1.152111" lat="46.141798" type="education"/>
  <poi id="edu_459" lon="-1.154698" lat="46.148559" type="education"/>
  <poi id="edu_460" lon="-1.154698" lat="46.148559" type="education"/>
  <poi id="edu_461" lon="-1.166311" lat="46.144023" type="education"/>
  <poi id="edu_462" lon="-1.179385" lat="46.160192" type="education"/>
  <poi id="edu_463" lon="-1.159470" lat="46.140405" type="education"/>
  <poi id="edu_464" lon="-1.129398" lat="46.161854" type="education"/>
  <poi id="edu_465" lon="-1.154108" lat="46.152568" type="education"/>
  <poi id="edu_466" lon="-1.153800" lat="46.164504" type="education"/>
  <poi id="edu_467" lon="-1.177619" lat="46.156231" type="education"/>
  <poi id="edu_468" lon="-1.151294" lat="46.177428" type="education"/>
  <poi id="edu_469" lon="-1.179550" lat="46.159271" type="education"/>
  <poi id="edu_470" lon="-1.158145" lat="46.148947" type="education"/>
  <poi id="edu_471" lon="-1.167400" lat="46.141278" type="education"/>
  <poi id="edu_472" lon="-1.179325" lat="46.161579" type="education"/>
  <poi id="edu_473" lon="-1.150296" lat="46.165263" type="education"/>
  <poi id="edu_474" lon="-1.154698" lat="46.148559" type="education"/>
  <poi id="edu_475" lon="-1.150296" lat="46.165263" type="education"/>
  <poi id="edu_476" lon="-1.148365" lat="46.168661" type="education"/>
  <poi id="edu_477" lon="-1.174049" lat="46.171156" type="education"/>
  <poi id="edu_478" lon="-1.145497" lat="46.154839" type="education"/>
  <poi id="edu_479" lon="-1.151467" lat="46.136451" type="education"/>
  <poi id="edu_480" lon="-1.154698" lat="46.148559" type="education"/>
  <poi id="edu_481" lon="-1.153033" lat="46.140001" type="education"/>
  <poi id="edu_482" lon="-1.155935" lat="46.140638" type="education"/>
  <poi id="edu_483" lon="-1.152111" lat="46.141798" type="education"/>
  <poi id="edu_484" lon="-1.118392" lat="46.152871" type="education"/>
  <poi id="edu_485" lon="-1.162430" lat="46.144165" type="education"/>
  <poi id="edu_486" lon="-1.127356" lat="46.160775" type="education"/>
  <poi id="edu_487" lon="-1.125008" lat="46.161682" type="education"/>
  <poi id="edu_502" lon="-1.003257" lat="45.621151" type="education"/>
  <poi id="edu_521" lon="-0.947192" lat="46.145543" type="education"/>
  <poi id="edu_594" lon="-0.970249" lat="46.157823" type="education"/>
  <poi id="edu_625" lon="-1.030913" lat="46.201683" type="education"/>
  <poi id="edu_679" lon="-1.056974" lat="46.105102" type="education"/>
  <poi id="home_10001" lon="-1.108427" lat="46.131491" type="home"/>
  <poi id="home_10006" lon="-1.107582" lat="46.132807" type="home"/>
  <poi id="home_10013" lon="-1.126056" lat="46.139350" type="home"/>
  <poi id="home_10025" lon="-1.085026" lat="46.159293" type="home"/>
  <poi id="home_10029" lon="-1.085983" lat="46.160240" type="home"/>
  <poi id="home_10077" lon="-1.099641" lat="46.155865" type="home"/>
  <poi id="home_10080" lon="-1.104451" lat="46.153376" type="home"/>
  <poi id="home_10116" lon="-1.109839" lat="46.171546" type="home"/>
  <poi id="home_10121" lon="-1.120787" lat="46.164392" type="home"/>
  <poi id="home_10128" lon="-1.088401" lat="46.158260" type="home"/>
  <poi id="home_1014" lon="-1.130284" lat="46.136884" type="home"/>
  <poi id="home_10149" lon="-1.121541" lat="46.133019" type="home"/>
  <poi id="home_1016" lon="-1.126914" lat="46.131732" type="home"/>
  <poi id="home_10184" lon="-1.136606" lat="46.141225" type="home"/>
  <poi id="home_10186" lon="-1.127746" lat="46.132756" type="home"/>
  <poi id="home_10235" lon="-1.086979" lat="46.153005" type="home"/>
  <poi id="home_10255" lon="-1.083423" lat="46.153137" type="home"/>
  <poi id="home_10262" lon="-1.118657" lat="46.132682" type="home"/>
  <poi id="home_102704" lon="-1.186832" lat="46.183804" type="home"/>
  <poi id="home_102754" lon="-1.189169" lat="46.188816" type="home"/>
  <poi id="home_102766" lon="-1.192692" lat="46.188126" type="home"/>
  <poi id="home_102819" lon="-1.181869" lat="46.194517" type="home"/>
  <poi id="home_10283" lon="-1.127811" lat="46.131492" type="home"/>
  <poi id="home_102844" lon="-1.191174" lat="46.190035" type="home"/>
  <poi id="home_102858" lon="-1.185962" lat="46.185183" type="home"/>
  <poi id="home_102859" lon="-1.186965" lat="46.192143" type="home"/>
  <poi id="home_102862" lon="-1.191384" lat="46.188487" type="home"/>
  <poi id="home_102869" lon="-1.194250" lat="46.189279" type="home"/>
  <poi id="home_102872" lon="-1.184812" lat="46.196357" type="home"/>
  <poi id="home_102888" lon="-1.171908" lat="46.192343" type="home"/>
  <poi id="home_102891" lon="-1.184812" lat="46.196357" type="home"/>
  <poi id="home_102901" lon="-1.190180" lat="46.187677" type="home"/>
  <poi id="home_102906" lon="-1.193189" lat="46.190166" type="home"/>
  <poi id="home_102907" lon="-1.187527" lat="46.187202" type="home"/>
  <poi id="home_102913" lon="-1.190502" lat="46.191772" type="home"/>
  <poi id="home_102916" lon="-1.187023" lat="46.187310" type="home"/>
  <poi id="home_102917" lon="-1.191676" lat="46.188452" type="home"/>
  <poi id="home_102928" lon="-1.182406" lat="46.195266" type="home"/>
  <poi id="home_102934" lon="-1.189885" lat="46.187985" type="home"/>
  <poi id="home_102944" lon="-1.191116" lat="46.191045" type="home"/>
  <poi id="home_102961" lon="-1.191384" lat="46.188487" type="home"/>
  <poi id="home_102966" lon="-1.190757" lat="46.187550" type="home"/>
  <poi id="home_102984" lon="-1.187019" lat="46.186521" type="home"/>
  <poi id="home_103001" lon="-1.174009" lat="46.182350" type="home"/>
  <poi id="home_103013" lon="-1.192677" lat="46.192854" type="home"/>
  <poi id="home_103028" lon="-1.187322" lat="46.189038" type="home"/>
  <poi id="home_103036" lon="-1.185840" lat="46.190247" type="home"/>
  <poi id="home_10304" lon="-1.092165" lat="46.150374" type="home"/>
  <poi id="home_103053" lon="-1.188470" lat="46.188367" type="home"/>
  <poi id="home_103074" lon="-1.186995" lat="46.191819" type="home"/>
  <poi id="home_103083" lon="-1.194112" lat="46.188757" type="home"/>
  <poi id="home_103084" lon="-1.189284" lat="46.189297" type="home"/>
  <poi id="home_103085" lon="-1.191071" lat="46.189089" type="home"/>
  <poi id="home_103101" lon="-1.185890" lat="46.195483" type="home"/>
  <poi id="home_103107" lon="-1.189220" lat="46.188595" type="home"/>
  <poi id="home_103113" lon="-1.189290" lat="46.188503" type="home"/>
  <poi id="home_10312" lon="-1.128845" lat="46.131532" type="home"/>
  <poi id="home_103149" lon="-1.187429" lat="46.185447" type="home"/>
  <poi id="home_10315" lon="-1.130454" lat="46.137410" type="home"/>
  <poi id="home_103159" lon="-1.185057" lat="46.192043" type="home"/>
  <poi id="home_103180" lon="-1.188255" lat="46.188772" type="home"/>
  <poi id="home_103183" lon="-1.184875" lat="46.185479" type="home"/>
  <poi id="home_10319" lon="-1.131785" lat="46.140469" type="home"/>
  <poi id="home_103195" lon="-1.185122" lat="46.191381" type="home"/>
  <poi id="home_103203" lon="-1.192483" lat="46.190199" type="home"/>
  <poi id="home_103208" lon="-1.187654" lat="46.190812" type="home"/>
  <poi id="home_103209" lon="-1.187708" lat="46.183785" type="home"/>
  <poi id="home_103223" lon="-1.184430" lat="46.193079" type="home"/>
  <poi id="home_103229" lon="-1.191416" lat="46.188753" type="home"/>
  <poi id="home_103235" lon="-1.186804" lat="46.192675" type="home"/>
  <poi id="home_10325" lon="-1.110180" lat="46.167184" type="home"/>
  <poi id="home_103254" lon="-1.190184" lat="46.186270" type="home"/>
  <poi id="home_103258" lon="-1.183601" lat="46.191460" type="home"/>
  <poi id="home_103264" lon="-1.189389" lat="46.187377" type="home"/>
  <poi id="home_103269" lon="-1.192122" lat="46.190701" type="home"/>
  <poi id="home_103285" lon="-1.187096" lat="46.193962" type="home"/>
  <poi id="home_103309" lon="-1.182609" lat="46.194348" type="home"/>
  <poi id="home_103311" lon="-1.185303" lat="46.185237" type="home"/>
  <poi id="home_103319" lon="-1.191222" lat="46.194582" type="home"/>
  <poi id="home_103330" lon="-1.189980" lat="46.185835" type="home"/>
  <poi id="home_103339" lon="-1.182590" lat="46.192729" type="home"/>
  <poi id="home_103354" lon="-1.180133" lat="46.194328" type="home"/>
  <poi id="home_103357" lon="-1.193058" lat="46.190784" type="home"/>
  <poi id="home_103366" lon="-1.186996" lat="46.186880" type="home"/>
  <poi id="home_103388" lon="-1.183432" lat="46.194613" type="home"/>
  <poi id="home_103412" lon="-1.179539" lat="46.194642" type="home"/>
  <poi id="home_103415" lon="-1.190598" lat="46.193314" type="home"/>
  <poi id="home_103418" lon="-1.188117" lat="46.190204" type="home"/>
  <poi id="home_103434" lon="-1.188447" lat="46.187094" type="home"/>
  <poi id="home_103448" lon="-1.188384" lat="46.190621" type="home"/>
  <poi id="home_103451" lon="-1.186140" lat="46.192709" type="home"/>
  <poi id="home_103471" lon="-1.189389" lat="46.187377" type="home"/>
  <poi id="home_103475" lon="-1.189026" lat="46.188077" type="home"/>
  <poi id="home_103477" lon="-1.190667" lat="46.187808" type="home"/>
  <poi id="home_103478" lon="-1.185525" lat="46.191454" type="home"/>
  <poi id="home_103492" lon="-1.184236" lat="46.196714" type="home"/>
  <poi id="home_103495" lon="-1.194111" lat="46.189571" type="home"/>
  <poi id="home_103498" lon="-1.191757" lat="46.192552" type="home"/>
  <poi id="home_10351" lon="-1.116880" lat="46.165689" type="home"/>
  <poi id="home_103515" lon="-1.172463" lat="46.193030" type="home"/>
  <poi id="home_103516" lon="-1.188281" lat="46.186355" type="home"/>
  <poi id="home_103532" lon="-1.186956" lat="46.185987" type="home"/>
  <poi id="home_10354" lon="-1.101176" lat="46.152515" type="home"/>
  <poi id="home_103541" lon="-1.185015" lat="46.197388" type="home"/>
  <poi id="home_103546" lon="-1.185900" lat="46.192938" type="home"/>
  <poi id="home_103550" lon="-1.183251" lat="46.195449" type="home"/>
  <poi id="home_103558" lon="-1.179479" lat="46.194769" type="home"/>
  <poi id="home_103572" lon="-1.192106" lat="46.188582" type="home"/>
  <poi id="home_103585" lon="-1.187746" lat="46.195103" type="home"/>
  <poi id="home_103586" lon="-1.186688" lat="46.193316" type="home"/>
  <poi id="home_103594" lon="-1.189580" lat="46.185962" type="home"/>
  <poi id="home_103595" lon="-1.188085" lat="46.185779" type="home"/>
  <poi id="home_103601" lon="-1.190566" lat="46.188350" type="home"/>
  <poi id="home_103602" lon="-1.186803" lat="46.185313" type="home"/>
  <poi id="home_103621" lon="-1.181702" lat="46.193836" type="home"/>
  <poi id="home_103659" lon="-1.184671" lat="46.185803" type="home"/>
  <poi id="home_103672" lon="-1.181359" lat="46.193134" type="home"/>
  <poi id="home_103673" lon="-1.191324" lat="46.191315" type="home"/>
  <poi id="home_103684" lon="-1.187727" lat="46.183584" type="home"/>
  <poi id="home_103686" lon="-1.173816" lat="46.193514" type="home"/>
  <poi id="home_10372" lon="-1.131278" lat="46.142564" type="home"/>
  <poi id="home_103722" lon="-1.190022" lat="46.193486" type="home"/>
  <poi id="home_103724" lon="-1.188436" lat="46.187872" type="home"/>
  <poi id="home_103730" lon="-1.188503" lat="46.187616" type="home"/>
  <poi id="home_103732" lon="-1.191267" lat="46.193212" type="home"/>
  <poi id="home_103734" lon="-1.191325" lat="46.193528" type="home"/>
  <poi id="home_103740" lon="-1.192045" lat="46.187931" type="home"/>
  <poi id="home_103741" lon="-1.187403" lat="46.193653" type="home"/>
  <poi id="home_103748" lon="-1.184329" lat="46.190287" type="home"/>
  <poi id="home_103769" lon="-1.187403" lat="46.193653" type="home"/>
  <poi id="home_103774" lon="-1.191499" lat="46.193969" type="home"/>
  <poi id="home_103794" lon="-1.180193" lat="46.195210" type="home"/>
  <poi id="home_103806" lon="-1.186995" lat="46.191819" type="home"/>
  <poi id="home_103809" lon="-1.182277" lat="46.194468" type="home"/>
  <poi id="home_103813" lon="-1.191384" lat="46.188487" type="home"/>
  <poi id="home_103817" lon="-1.180962" lat="46.193293" type="home"/>
  <poi id="home_103822" lon="-1.196718" lat="46.197812" type="home"/>
  <poi id="home_103835" lon="-1.185867" lat="46.192864" type="home"/>
  <poi id="home_103838" lon="-1.172080" lat="46.192787" type="home"/>
  <poi id="home_103842" lon="-1.190432" lat="46.190012" type="home"/>
  <poi id="home_103852" lon="-1.183423" lat="46.190381" type="home"/>
  <poi id="home_103857" lon="-1.193347" lat="46.189956" type="home"/>
  <poi id="home_103874" lon="-1.181761" lat="46.195737" type="home"/>
  <poi id="home_103877" lon="-1.190553" lat="46.192226" type="home"/>
  <poi id="home_103879" lon="-1.187016" lat="46.191402" type="home"/>
  <poi id="home_103886" lon="-1.189110" lat="46.188927" type="home"/>
  <poi id="home_103887" lon="-1.189395" lat="46.187021" type="home"/>
  <poi id="home_103895" lon="-1.172012" lat="46.194445" type="home"/>
  <poi id="home_103910" lon="-1.189054" lat="46.185216" type="home"/>
  <poi id="home_103923" lon="-1.182759" lat="46.194189" type="home"/>
  <poi id="home_103926" lon="-1.191324" lat="46.191315" type="home"/>
  <poi id="home_103928" lon="-1.182971" lat="46.195472" type="home"/>
  <poi id="home_103933" lon="-1.168094" lat="46.195869" type="home"/>
  <poi id="home_104015" lon="-1.187170" lat="46.193581" type="home"/>
  <poi id="home_104028" lon="-1.191771" lat="46.187786" type="home"/>
  <poi id="home_10403" lon="-1.114882" lat="46.140407" type="home"/>
  <poi id="home_104031" lon="-1.181750" lat="46.195403" type="home"/>
  <poi id="home_104057" lon="-1.193130" lat="46.189220" type="home"/>
  <poi id="home_10406" lon="-1.119551" lat="46.128190" type="home"/>
  <poi id="home_10407" lon="-1.147633" lat="46.135298" type="home"/>
  <poi id="home_10419" lon="-1.131531" lat="46.137421" type="home"/>
  <poi id="home_1042" lon="-1.093883" lat="46.130310" type="home"/>
  <poi id="home_10429" lon="-1.127098" lat="46.134027" type="home"/>
  <poi id="home_10431" lon="-1.107928" lat="46.132522" type="home"/>
  <poi id="home_10433" lon="-1.109025" lat="46.139524" type="home"/>
  <poi id="home_1045" lon="-1.086128" lat="46.158332" type="home"/>
  <poi id="home_104671" lon="-1.066316" lat="46.126715" type="home"/>
  <poi id="home_104673" lon="-1.076123" lat="46.128179" type="home"/>
  <poi id="home_104689" lon="-1.065194" lat="46.124548" type="home"/>
  <poi id="home_104692" lon="-1.090299" lat="46.123055" type="home"/>
  <poi id="home_104697" lon="-1.075571" lat="46.127965" type="home"/>
  <poi id="home_104715" lon="-1.090494" lat="46.123298" type="home"/>
  <poi id="home_104727" lon="-1.068923" lat="46.124384" type="home"/>
  <poi id="home_104742" lon="-1.066045" lat="46.126628" type="home"/>
  <poi id="home_104751" lon="-1.077642" lat="46.130077" type="home"/>
  <poi id="home_104760" lon="-1.068220" lat="46.126094" type="home"/>
  <poi id="home_104772" lon="-1.063137" lat="46.126440" type="home"/>
  <poi id="home_104777" lon="-1.076916" lat="46.130005" type="home"/>
  <poi id="home_1048" lon="-1.087645" lat="46.159955" type="home"/>
  <poi id="home_104825" lon="-1.077317" lat="46.126721" type="home"/>
  <poi id="home_104826" lon="-1.068692" lat="46.124680" type="home"/>
  <poi id="home_104827" lon="-1.064459" lat="46.125311" type="home"/>
  <poi id="home_104839" lon="-1.073438" lat="46.124701" type="home"/>
  <poi id="home_104853" lon="-1.070255" lat="46.124960" type="home"/>
  <poi id="home_104857" lon="-1.067667" lat="46.128253" type="home"/>
  <poi id="home_104867" lon="-1.077201" lat="46.129964" type="home"/>
  <poi id="home_104878" lon="-1.071421" lat="46.126248" type="home"/>
  <poi id="home_104879" lon="-1.066202" lat="46.129386" type="home"/>
  <poi id="home_10489" lon="-1.125899" lat="46.126546" type="home"/>
  <poi id="home_104896" lon="-1.090356" lat="46.123585" type="home"/>
  <poi id="home_1049" lon="-1.087835" lat="46.158835" type="home"/>
  <poi id="home_10490" lon="-1.119339" lat="46.129523" type="home"/>
  <poi id="home_104902" lon="-1.078638" lat="46.128037" type="home"/>
  <poi id="home_104904" lon="-1.062969" lat="46.126668" type="home"/>
  <poi id="home_104917" lon="-1.077711" lat="46.124539" type="home"/>
  <poi id="home_10493" lon="-1.119551" lat="46.128190" type="home"/>
  <poi id="home_104931" lon="-1.090218" lat="46.124101" type="home"/>
  <poi id="home_104950" lon="-1.062899" lat="46.128133" type="home"/>
  <poi id="home_104952" lon="-1.062055" lat="46.127758" type="home"/>
  <poi id="home_104958" lon="-1.073972" lat="46.125911" type="home"/>
  <poi id="home_104970" lon="-1.090282" lat="46.123727" type="home"/>
  <poi id="home_104975" lon="-1.078498" lat="46.128149" type="home"/>
  <poi id="home_104989" lon="-1.080570" lat="46.130641" type="home"/>
  <poi id="home_104995" lon="-1.073783" lat="46.126153" type="home"/>
  <poi id="home_105004" lon="-1.075670" lat="46.130425" type="home"/>
  <poi id="home_105035" lon="-1.066362" lat="46.124416" type="home"/>
  <poi id="home_105036" lon="-1.070669" lat="46.126262" type="home"/>
  <poi id="home_105047" lon="-1.075786" lat="46.127071" type="home"/>
  <poi id="home_105054" lon="-1.090432" lat="46.123329" type="home"/>
  <poi id="home_105057" lon="-1.084116" lat="46.122909" type="home"/>
  <poi id="home_105060" lon="-1.079005" lat="46.129327" type="home"/>
  <poi id="home_105074" lon="-1.075688" lat="46.126761" type="home"/>
  <poi id="home_105091" lon="-1.072041" lat="46.124994" type="home"/>
  <poi id="home_105092" lon="-1.077053" lat="46.129983" type="home"/>
  <poi id="home_10511" lon="-1.109348" lat="46.131896" type="home"/>
  <poi id="home_105122" lon="-1.075869" lat="46.126780" type="home"/>
  <poi id="home_105139" lon="-1.066060" lat="46.128082" type="home"/>
  <poi id="home_105148" lon="-1.068222" lat="46.123994" type="home"/>
  <poi id="home_105156" lon="-1.069430" lat="46.123878" type="home"/>
  <poi id="home_105166" lon="-1.067761" lat="46.125381" type="home"/>
  <poi id="home_105178" lon="-1.066093" lat="46.124734" type="home"/>
  <poi id="home_105181" lon="-1.079077" lat="46.128583" type="home"/>
  <poi id="home_105182" lon="-1.069187" lat="46.127382" type="home"/>
  <poi id="home_10519" lon="-1.115355" lat="46.140685" type="home"/>
  <poi id="home_105206" lon="-1.076390" lat="46.125069" type="home"/>
  <poi id="home_105208" lon="-1.071458" lat="46.126293" type="home"/>
  <poi id="home_10521" lon="-1.115431" lat="46.140003" type="home"/>
  <poi id="home_105218" lon="-1.077466" lat="46.129698" type="home"/>
  <poi id="home_105220" lon="-1.063137" lat="46.126440" type="home"/>
  <poi id="home_105221" lon="-1.077881" lat="46.130061" type="home"/>
  <poi id="home_105223" lon="-1.070597" lat="46.129311" type="home"/>
  <poi id="home_105226" lon="-1.076497" lat="46.130478" type="home"/>
  <poi id="home_105231" lon="-1.077361" lat="46.129727" type="home"/>
  <poi id="home_105237" lon="-1.073095" lat="46.126606" type="home"/>
  <poi id="home_105240" lon="-1.074929" lat="46.125319" type="home"/>
  <poi id="home_105247" lon="-1.065817" lat="46.126492" type="home"/>
  <poi id="home_105250" lon="-1.068143" lat="46.124418" type="home"/>
  <poi id="home_105251" lon="-1.062882" lat="46.125783" type="home"/>
  <poi id="home_105257" lon="-1.074581" lat="46.125752" type="home"/>
  <poi id="home_105264" lon="-1.075130" lat="46.128192" type="home"/>
  <poi id="home_105268" lon="-1.072769" lat="46.130062" type="home"/>
  <poi id="home_10528" lon="-1.133330" lat="46.142424" type="home"/>
  <poi id="home_105286" lon="-1.078294" lat="46.125707" type="home"/>
  <poi id="home_105296" lon="-1.070011" lat="46.127129" type="home"/>
  <poi id="home_105310" lon="-1.044695" lat="46.131018" type="home"/>
  <poi id="home_105321" lon="-1.075192" lat="46.130395" type="home"/>
  <poi id="home_105328" lon="-1.064468" lat="46.128813" type="home"/>
  <poi id="home_105330" lon="-1.090467" lat="46.123307" type="home"/>
  <poi id="home_105332" lon="-1.062129" lat="46.126032" type="home"/>
  <poi id="home_10534" lon="-1.085657" lat="46.153912" type="home"/>
  <poi id="home_105346" lon="-1.070707" lat="46.124523" type="home"/>
  <poi id="home_105348" lon="-1.077140" lat="46.129973" type="home"/>
  <poi id="home_105350" lon="-1.076602" lat="46.130310" type="home"/>
  <poi id="home_105356" lon="-1.068812" lat="46.125103" type="home"/>
  <poi id="home_105357" lon="-1.072848" lat="46.126658" type="home"/>
  <poi id="home_105387" lon="-1.089893" lat="46.122431" type="home"/>
  <poi id="home_105427" lon="-1.068726" lat="46.129558" type="home"/>
  <poi id="home_105431" lon="-1.073255" lat="46.130160" type="home"/>
  <poi id="home_105445" lon="-1.079583" lat="46.128915" type="home"/>
  <poi id="home_105463" lon="-1.066733" lat="46.128791" type="home"/>
  <poi id="home_105465" lon="-1.075253" lat="46.127180" type="home"/>
  <poi id="home_105476" lon="-1.070597" lat="46.129311" type="home"/>
  <poi id="home_105496" lon="-1.068692" lat="46.124680" type="home"/>
  <poi id="home_105503" lon="-1.067375" lat="46.128180" type="home"/>
  <poi id="home_105511" lon="-1.067086" lat="46.126554" type="home"/>
  <poi id="home_10553" lon="-1.094619" lat="46.157062" type="home"/>
  <poi id="home_105533" lon="-1.068923" lat="46.124384" type="home"/>
  <poi id="home_105539" lon="-1.090994" lat="46.122975" type="home"/>
  <poi id="home_105543" lon="-1.069355" lat="46.125235" type="home"/>
  <poi id="home_105554" lon="-1.090381" lat="46.123327" type="home"/>
  <poi id="home_105555" lon="-1.061040" lat="46.127837" type="home"/>
  <poi id="home_105571" lon="-1.075130" lat="46.128192" type="home"/>
  <poi id="home_105575" lon="-1.073680" lat="46.125600" type="home"/>
  <poi id="home_105577" lon="-1.090632" lat="46.122608" type="home"/>
  <poi id="home_105585" lon="-1.045057" lat="46.130840" type="home"/>
  <poi id="home_105612" lon="-1.069192" lat="46.126464" type="home"/>
  <poi id="home_10562" lon="-1.123638" lat="46.134107" type="home"/>
  <poi id="home_105635" lon="-1.076324" lat="46.126762" type="home"/>
  <poi id="home_105636" lon="-1.072911" lat="46.129956" type="home"/>
  <poi id="home_105637" lon="-1.090237" lat="46.123988" type="home"/>
  <poi id="home_105640" lon="-1.077240" lat="46.128223" type="home"/>
  <poi id="home_105644" lon="-1.077155" lat="46.126628" type="home"/>