<?xml version="1.0" encoding="UTF-8"?>

<!-- generated on 2026-01-13 10:48:03 by Eclipse SUMO netconvert Version 1.22.0
<netconvertConfiguration xmlns:xsi="http://www.w3.org/2001/XMLSchema-instance" xsi:noNamespaceSchemaLocation="http://sumo.dlr.de/xsd/netconvertConfiguration.xsd">

    <input>
        <osm-files value="../1-network/cda_la_rochelle.osm"/>
    </input>

    <output>
        <output-file value="cda_la_rochelle.net.xml"/>
        <ptstop-output value="busstop.add.xml"/>
    </output>

    <projection>
        <proj.utm value="true"/>
    </projection>

    <formats>
        <osm.stop-output.length value="20"/>
    </formats>

</netconvertConfiguration>
-->

<additional xmlns:xsi="http://www.w3.org/2001/XMLSchema-instance" xsi:noNamespaceSchemaLocation="http://sumo.dlr.de/xsd/additional_file.xsd">
    <busStop id="-10060426004" name="Les Périnets" lane="-1098762867#0_0" startPos="5.99" endPos="25.99" friendlyPos="true"/>
    <busStop id="-10081553359" name="Les Quatres Maisons" lane="-321830340#2_0" startPos="65.97" endPos="80.97" friendlyPos="true"/>
    <busStop id="-10081983270" name="La Pharmacie" lane="-560359223#1_0" startPos="20.32" endPos="35.32" friendlyPos="true"/>
    <busStop id="-10081983271" name="arret de bus" lane="-129910052#5_0" startPos="162.69" endPos="177.69" friendlyPos="true"/>
    <busStop id="-10082191317" name="St-Pierre-la-Noue, Brettes" lane="-73850403_0" startPos="133.39" endPos="148.39" friendlyPos="true"/>
    <busStop id="-1054631251" name="11 Novembre" lane="-90838957#0_0" startPos="45.10" endPos="60.10" friendlyPos="true"/>
    <busStop id="-10594481988" name="Coulon Centre" lane="-46626876#1_0" startPos="3.41" endPos="18.41" friendlyPos="true" lines="22"/>
    <busStop id="-10594481990" name="Amuré Mairie" lane="-454963389#9_0" startPos="12.54" endPos="27.54" friendlyPos="true"/>
    <busStop id="-10604260885" name="P+R Simone Veil" lane="-1425342926#1_0" startPos="0.00" endPos="13.48" friendlyPos="true" lines="5">
        <access lane="-1034231049#0_0" pos="12.98" length="22.83" friendlyPos="1"/>
        <access lane="1034231049#0_0" pos="72.57" length="19.83" friendlyPos="1"/>
        <access lane="1137615550#5_0" pos="0.01" length="19.74" friendlyPos="1"/>
        <access lane="1425342922_0" pos="13.20" length="13.26" friendlyPos="1"/>
        <access lane="1425342923_0" pos="12.99" length="2.02" friendlyPos="1"/>
    </busStop>
    <busStop id="-10676642163" name="Luxembourg" lane="-361422358_0" startPos="1.30" endPos="16.30" friendlyPos="true"/>
    <busStop id="-10695336302" name="Pont de Grolleau" lane="-154569253#0_0" startPos="10.78" endPos="25.78" friendlyPos="true" lines="15"/>
    <busStop id="-10739401279" name="Rompsay" lane="-367406286#0_0" startPos="0.00" endPos="12.05" friendlyPos="true"/>
    <busStop id="-1088370762" name="Pêcheurs d&apos;Islande" lane="-436774164#0_0" startPos="16.99" endPos="31.99" friendlyPos="true"/>
    <busStop id="-1088370774" name="Belle Judith" lane="-206507235#0_0" startPos="3.35" endPos="18.35" friendlyPos="true" lines="D1"/>
    <busStop id="-11034425306" name="Nantilly Beauvoirs" lane="-442490021#0_0" startPos="0.00" endPos="15.00" friendlyPos="true"/>
    <busStop id="-11078664658" name="Plage de Trousse Chemise" lane="-105078557#0_0" startPos="0.00" endPos="15.00" friendlyPos="true"/>
    <busStop id="-11242255588" name="Pluviers Dorés" lane="-305541701#0_0" startPos="37.74" endPos="52.74" friendlyPos="true"/>
    <busStop id="-1124869564" name="La Source" lane="-177352000#4_0" startPos="6.81" endPos="21.81" friendlyPos="true" lines="F"/>
    <busStop id="-1124869924" name="Les Lauriers" lane="-97094967_0" startPos="16.76" endPos="31.76" friendlyPos="true" lines="F"/>
    <busStop id="-11432414985" name="Stade M. Deflandre" lane="-257685309#1_0" startPos="2.51" endPos="17.51" friendlyPos="true" lines="7b D1 7a"/>
    <busStop id="-11435465665" name="La Couronne" lane="-257686176#1_0" startPos="0.00" endPos="15.00" friendlyPos="true" lines="7b D1 7a"/>
    <busStop id="-11438880798" name="La Corniche" lane="-23062972#1_0" startPos="7.37" endPos="22.37" friendlyPos="true" lines="6"/>
    <busStop id="-1143922433" name="La Croix" lane="-457758783_0" startPos="113.59" endPos="128.59" friendlyPos="true" lines="B"/>
    <busStop id="-1145457005" name="Bois du Four" lane="-99011251#1_0" startPos="236.06" endPos="251.06" friendlyPos="true"/>
    <busStop id="-11662382824" lane="-158328286#1_0" startPos="35.49" endPos="50.49" friendlyPos="true"/>
    <busStop id="-1169991950" name="Rompsay" lane="-1154767643#0_0" startPos="20.65" endPos="35.65" friendlyPos="true" lines="7b 7a"/>
    <busStop id="-11718287628" name="Saint-Hippolyte - Calvaire" lane="-128186526#6_0" startPos="0.00" endPos="20.00" friendlyPos="true"/>
    <busStop id="-11807681209" name="Saint Léonard" lane="-308739132#0_0" startPos="0.00" endPos="15.00" friendlyPos="true"/>
    <busStop id="-1181103399" name="Le Bois-Plage-en-Ré - Gros Jonc 1" lane="-758405987#8_0" startPos="30.02" endPos="45.02" friendlyPos="true" lines="152"/>
    <busStop id="-1181113589" name="Sainte-Marie-de-Ré - Les Grenettes" lane="-138956201#0_0" startPos="71.22" endPos="86.22" friendlyPos="true" lines="152"/>
    <busStop id="-11821968097" name="Le Gué" lane="-304101792#1_0" startPos="6.93" endPos="21.93" friendlyPos="true"/>
    <busStop id="-11963097500" name="Renan" lane="-305511818_0" startPos="16.42" endPos="31.42" friendlyPos="true"/>
    <busStop id="-11963097503" name="Jules Ferry" lane="-332649982#1_0" startPos="0.00" endPos="15.00" friendlyPos="true"/>
    <busStop id="-11963097507" name="Salengro" lane="-1082208201#3_0" startPos="28.79" endPos="43.79" friendlyPos="true" lines="1a N1 D1 1b 20"/>
    <busStop id="-11963097508" name="Salengro" lane="-305516237#0_0" startPos="0.00" endPos="15.00" friendlyPos="true"/>
    <busStop id="-11963097515" name="Place des Britanniques" lane="-749303403_0" startPos="4.62" endPos="19.62" friendlyPos="true" lines="1a N1 D1 1b"/>
    <busStop id="-11963097516" name="Gare La Rochelle - Jean Moulin" lane="-671791789#1_0" startPos="32.38" endPos="47.38" friendlyPos="true" lines="1b 1a 2 8 16 17 18 19 20 N1 N2 D1 D2 5">
        <access lane="-291301013#2_0" pos="51.31" length="25.07" friendlyPos="1"/>
        <access lane="1299456786#1_0" pos="12.58" length="13.69" friendlyPos="1"/>
        <access lane="291299103#0_0" pos="42.98" length="12.29" friendlyPos="1"/>
        <access lane="291299870#1_0" pos="73.80" length="16.98" friendlyPos="1"/>
        <access lane="718893611#1_0" pos="0.10" length="25.10" friendlyPos="1"/>
    </busStop>
    <busStop id="-11963097520" name="Claude Masse" lane="-23062681#5_0" startPos="24.14" endPos="39.14" friendlyPos="true" lines="1b 1a 2 N2 D2 D5"/>
    <busStop id="-11963097521" name="Claude Masse" lane="-23062681#4_0" startPos="0.00" endPos="15.00" friendlyPos="true"/>
    <busStop id="-11963097529" name="Coligny" lane="-23062681#1_0" startPos="0.00" endPos="15.00" friendlyPos="true"/>
    <busStop id="-11963097530" name="Coligny" lane="-154888167#8_0" startPos="28.70" endPos="43.70" friendlyPos="true" lines="1b 1a D5"/>
    <busStop id="-11963097531" name="Missy" lane="-154888167#3_0" startPos="0.00" endPos="15.00" friendlyPos="true"/>
    <busStop id="-11963097532" name="Missy" lane="-154888167#2_0" startPos="3.46" endPos="18.46" friendlyPos="true" lines="1b 1a D5"/>
    <busStop id="-11963097533" name="Saint-Maurice" lane="-354878246#0_0" startPos="72.30" endPos="87.30" friendlyPos="true" lines="1b 1a D5"/>
    <busStop id="-11963097534" name="Saint-Maurice" lane="-354878246#0_0" startPos="29.87" endPos="44.87" friendlyPos="true"/>
    <busStop id="-11963097535" name="Quatre Fages" lane="-256000778#0_0" startPos="11.58" endPos="26.58" friendlyPos="true"/>
    <busStop id="-11963097536" name="Quatre Fages" lane="-256000778#0_0" startPos="1.75" endPos="16.75" friendlyPos="true" lines="1b 1a 6 N1 D1 D5"/>
    <busStop id="-11963097537" name="Rossignolette" lane="-68254507#0_0" startPos="28.68" endPos="43.68" friendlyPos="true" lines="1b 1a N1 D1 D2 D5"/>
    <busStop id="-11963097538" name="Rossignolette" lane="-1363408878#2_0" startPos="18.83" endPos="33.83" friendlyPos="true"/>
    <busStop id="-11963097539" name="Vaugouin" lane="-68254499#1_0" startPos="50.16" endPos="65.16" friendlyPos="true"/>
    <busStop id="-11963097540" name="Vaugouin" lane="-68254499#1_0" startPos="3.58" endPos="18.58" friendlyPos="true" lines="1a N1 D1 D2"/>
    <busStop id="-11963097541" name="Jacques Henry" lane="-38369627#0_0" startPos="29.81" endPos="44.81" friendlyPos="true" lines="1a N1 D1 D2"/>
    <busStop id="-11963097542" name="Jacques Henry" lane="-38369627#0_0" startPos="13.07" endPos="28.07" friendlyPos="true"/>
    <busStop id="-11963097543" name="Laleu Sports" lane="-38369627#3_0" startPos="23.13" endPos="38.13" friendlyPos="true" lines="1a N1 D1 D2"/>
    <busStop id="-11963097544" name="Frigo" lane="-225554933#0_0" startPos="63.98" endPos="78.98" friendlyPos="true"/>
    <busStop id="-11967919056" name="Port La Pallice" lane="-304090029#1_0" startPos="0.00" endPos="15.00" friendlyPos="true"/>
    <busStop id="-11967919058" name="Montcalm" lane="-354887452#0_0" startPos="124.80" endPos="139.80" friendlyPos="true"/>
    <busStop id="-11967919060" name="Duquesne" lane="-1200858876#0_0" startPos="34.29" endPos="49.29" friendlyPos="true"/>
    <busStop id="-11967919062" name="Chirons Longs" lane="-304090436#12_0" startPos="24.34" endPos="39.34" friendlyPos="true"/>
    <busStop id="-11967919063" name="Chirons Longs" lane="-304090436#9_0" startPos="4.80" endPos="19.80" friendlyPos="true"/>
    <busStop id="-11967919065" name="Montréal" lane="-304090436#5_0" startPos="64.40" endPos="79.40" friendlyPos="true" lines="D2"/>
    <busStop id="-11967919066" name="Montréal" lane="-304090436#5_0" startPos="26.78" endPos="41.78" friendlyPos="true"/>
    <busStop id="-11967919068" name="Place de Verdun" lane="-1295735942_0" startPos="0.00" endPos="1.26" friendlyPos="true"/>
    <busStop id="-11967924869" name="Banque de France" lane="-18891442_0" startPos="8.97" endPos="23.97" friendlyPos="true"/>
    <busStop id="-11967924870" name="Banque de France" lane="-18891442_0" startPos="54.55" endPos="69.55" friendlyPos="true" lines="7b N1 D1 6 7a"/>
    <busStop id="-11967924874" name="Place des Britanniques" lane="-1290291027#0_0" startPos="12.81" endPos="27.81" friendlyPos="true"/>
    <busStop id="-11967924875" name="Place des Grands Prés" lane="-136486705#0_0" startPos="0.00" endPos="5.18" friendlyPos="true"/>
    <busStop id="-11967924876" name="Place des Grands Prés" lane="-1428510061#0_0" startPos="0.00" endPos="2.94" friendlyPos="true" lines="N1 D1"/>
    <busStop id="-11972081607" name="Malidor" lane="-332649967#8_0" startPos="49.87" endPos="64.87" friendlyPos="true" lines="1b"/>
    <busStop id="-11972081608" name="Malidor" lane="-332649967#8_0" startPos="51.75" endPos="66.75" friendlyPos="true"/>
    <busStop id="-11972081609" name="Modigliani" lane="-332649967#3_0" startPos="39.17" endPos="54.17" friendlyPos="true" lines="1b"/>
    <busStop id="-11972081610" name="Modigliani" lane="-332649967#3_0" startPos="67.16" endPos="82.16" friendlyPos="true"/>
    <busStop id="-11972081611" name="Jaurès" lane="-367406285#1_0" startPos="52.99" endPos="67.99" friendlyPos="true" lines="1b 5"/>
    <busStop id="-11972081613" name="Cité" lane="-38369675#1_0" startPos="0.00" endPos="7.19" friendlyPos="true"/>
    <busStop id="-11972081614" name="Oncor" lane="-38369678#0_0" startPos="14.23" endPos="29.23" friendlyPos="true" lines="D5 1b"/>
    <busStop id="-11972081615" name="Oncor" lane="-1291315343#2_0" startPos="20.10" endPos="35.10" friendlyPos="true"/>
    <busStop id="-11972081616" name="Colibri" lane="-38369678#4_0" startPos="36.80" endPos="51.80" friendlyPos="true" lines="D5 1b"/>
    <busStop id="-11972081618" name="Laleu Les Douanes" lane="-303942443#4_0" startPos="28.63" endPos="43.63" friendlyPos="true" lines="1b D5"/>
    <busStop id="-11972081619" name="Laleu Les Douanes" lane="-303942443#4_0" startPos="0.00" endPos="15.00" friendlyPos="true"/>
    <busStop id="-11972259339" name="Louis Guillet" lane="-38417686#2_0" startPos="14.46" endPos="29.46" friendlyPos="true" lines="N2 D2 2"/>
    <busStop id="-11972259343" name="Résistance" lane="-225651761#2_0" startPos="9.68" endPos="24.68" friendlyPos="true"/>
    <busStop id="-11972259344" name="Résistance" lane="-225651761#1_0" startPos="1.59" endPos="16.59" friendlyPos="true" lines="N2 D2 2"/>
    <busStop id="-11972259361" name="Guiardes" lane="-304098943#0_0" startPos="32.19" endPos="47.19" friendlyPos="true"/>
    <busStop id="-11972259362" name="Guiardes" lane="-1193526667#2_0" startPos="0.61" endPos="15.61" friendlyPos="true" lines="N2 D2 2"/>
    <busStop id="-11975768153" name="Calvaire" lane="-128186526#6_0" startPos="0.00" endPos="15.00" friendlyPos="true"/>
    <busStop id="-11981427109" name="Saint-Clément" lane="-208399143#6_0" startPos="69.23" endPos="84.23" friendlyPos="true"/>
    <busStop id="-11986386346" name="Olga de Saint-Affrique" lane="-225651159#1_0" startPos="8.30" endPos="23.30" friendlyPos="true"/>
    <busStop id="-11986386349" name="Fabre d&apos;Églantine" lane="-1292960401_0" startPos="0.00" endPos="11.16" friendlyPos="true"/>
    <busStop id="-11986386350" name="Convention" lane="-33845884#17_0" startPos="15.42" endPos="30.42" friendlyPos="true" lines="2 N2 D2"/>
    <busStop id="-11986386351" name="Billaud Varenne" lane="-33845884#6_0" startPos="0.00" endPos="15.00" friendlyPos="true" lines="2 N2 D2"/>
    <busStop id="-11986386352" name="14 Juillet" lane="-33845884#1_0" startPos="2.67" endPos="17.67" friendlyPos="true"/>
    <busStop id="-11986386353" name="14 Juillet" lane="-39741374#2_0" startPos="0.00" endPos="15.00" friendlyPos="true"/>
    <busStop id="-11986386354" name="Proudhon" lane="-39741374#18_0" startPos="32.62" endPos="47.62" friendlyPos="true" lines="N2 2"/>
    <busStop id="-11986386356" name="Petit Brouage" lane="-225552373#5_0" startPos="9.75" endPos="24.75" friendlyPos="true" lines="N2 D2 2"/>
    <busStop id="-11986386357" name="Petit Brouage" lane="-459042389#1_0" startPos="136.39" endPos="151.39" friendlyPos="true"/>
    <busStop id="-11986386359" name="Coligny" lane="-91385133#1_0" startPos="49.12" endPos="64.12" friendlyPos="true" lines="2 N2 D2"/>
    <busStop id="-11986386360" name="Bel Air" lane="-304099404#1_0" startPos="0.00" endPos="15.00" friendlyPos="true" lines="2 N2 D2"/>
    <busStop id="-11986386361" name="Bel Air" lane="-304099404#1_0" startPos="8.31" endPos="23.31" friendlyPos="true"/>
    <busStop id="-11986386363" name="Tribunal d&apos;Instance" lane="-354316989#4_0" startPos="2.79" endPos="17.79" friendlyPos="true" lines="2 N2 D2"/>
    <busStop id="-11986386364" name="La Chope" lane="-225695247#4_0" startPos="4.75" endPos="19.75" friendlyPos="true" lines="2 N2 D2"/>
    <busStop id="-11986386365" name="Le Lorrain" lane="-37848337#0_0" startPos="0.00" endPos="13.03" friendlyPos="true" lines="2 N2 D2"/>
    <busStop id="-11986386367" name="Le Lorrain" lane="-525466088_0" startPos="39.90" endPos="54.90" friendlyPos="true" lines="N2 D2 2"/>
    <busStop id="-11986386368" name="Racine" lane="-38547883#2_0" startPos="68.26" endPos="83.26" friendlyPos="true" lines="2 N2 D2"/>
    <busStop id="-11986481069" name="Racine" lane="-38547883#1_0" startPos="5.47" endPos="20.47" friendlyPos="true"/>
    <busStop id="-11986481071" name="Dame Hilaire" lane="-38547883#0_0" startPos="79.76" endPos="94.76" friendlyPos="true"/>
    <busStop id="-11986481073" name="Dame Hilaire" lane="-939450337#2_0" startPos="12.13" endPos="27.13" friendlyPos="true" lines="2 N2 D2"/>
    <busStop id="-11986481078" name="B. Giraudeau" lane="-38505882#3_0" startPos="151.24" endPos="166.24" friendlyPos="true" lines="2 N2 D2"/>
    <busStop id="-11986481079" name="Orbigny" lane="-18895062#0_0" startPos="94.58" endPos="109.58" friendlyPos="true" lines="3 1b 1a 2 7a 7b N1 N2 N3 D1 D2 D3 D5 5"/>
    <busStop id="-11987805417" name="République" lane="-40746233#0_0" startPos="20.26" endPos="35.26" friendlyPos="true" lines="3"/>
    <busStop id="-11987805420" name="Le Rail" lane="-40823364#1_0" startPos="28.57" endPos="43.57" friendlyPos="true"/>
    <busStop id="-11987805421" name="Le Rail" lane="-40823364#1_0" startPos="78.56" endPos="93.56" friendlyPos="true" lines="3"/>
    <busStop id="-11987805424" name="Musée Maritime" lane="-536860958#0_0" startPos="5.14" endPos="20.14" friendlyPos="true" lines="3 N3 D3 D4 4">
        <access lane="1429277290#2_0" pos="2.76" length="15.96" friendlyPos="1"/>
        <access lane="536862823#0_0" pos="2.69" length="10.18" friendlyPos="1"/>
        <access lane="536862823#1_0" pos="0.00" length="10.23" friendlyPos="1"/>
        <access lane="750210110#10_0" pos="0.00" length="19.16" friendlyPos="1"/>
        <access lane="750210110#9_0" pos="17.40" length="14.91" friendlyPos="1"/>
    </busStop>
    <busStop id="-11987805425" name="Aquarium" lane="-306106133#3_0" startPos="48.08" endPos="63.08" friendlyPos="true" lines="3 N3 D3 D4 4">
        <access lane="121035232#4_0" pos="96.51" length="24.29" friendlyPos="1"/>
        <access lane="121035233#0_0" pos="0.00" length="22.43" friendlyPos="1"/>
        <access lane="306106544#0_0" pos="55.30" length="14.51" friendlyPos="1"/>
        <access lane="766676173#1_0" pos="26.48" length="9.65" friendlyPos="1"/>
        <access lane="766676174_0" pos="31.27" length="8.32" friendlyPos="1"/>
    </busStop>
    <busStop id="-11987805426" name="Gare La Rochelle (De Gaulle)" lane="-1303289216_0" startPos="0.00" endPos="15.00" friendlyPos="true" lines="17 20 18">
        <access lane="-1164554938#3_0" pos="28.14" length="17.00" friendlyPos="1"/>
        <access lane="1014293155_0" pos="17.90" length="9.54" friendlyPos="1"/>
        <access lane="1014293156_0" pos="54.32" length="11.70" friendlyPos="1"/>
        <access lane="1164554938#3_0" pos="62.08" length="14.00" friendlyPos="1"/>
        <access lane="1164554942_0" pos="0.20" length="46.73" friendlyPos="1"/>
    </busStop>
    <busStop id="-11987805427" name="Gare La Rochelle (De Gaulle)" lane="-1164537456_0" startPos="8.79" endPos="23.79" friendlyPos="true">
        <access lane="-1164554938#3_0" pos="58.71" length="17.82" friendlyPos="1"/>
        <access lane="1014293155_0" pos="48.46" length="10.75" friendlyPos="1"/>
        <access lane="1014293156_0" pos="23.74" length="11.58" friendlyPos="1"/>
        <access lane="1082210802_0" pos="0.20" length="45.18" friendlyPos="1"/>
        <access lane="1164554938#3_0" pos="31.51" length="14.82" friendlyPos="1"/>
    </busStop>
    <busStop id="-11987805431" name="Porte Dauphine" lane="-39097848_0" startPos="42.20" endPos="57.20" friendlyPos="true" lines="3 N3 D3"/>
    <busStop id="-11987805432" name="Piscine" lane="-39097841#0_0" startPos="97.98" endPos="112.98" friendlyPos="true"/>
    <busStop id="-11990358022" name="Port des Minimes" lane="-38088047#1_0" startPos="26.43" endPos="41.43" friendlyPos="true"/>
    <busStop id="-11990358023" name="Cognehors" lane="-39502615#1_0" startPos="35.73" endPos="50.73" friendlyPos="true"/>
    <busStop id="-11990358025" name="P+R Beaulieu" lane="1136184640#2_0" startPos="0.00" endPos="5.65" friendlyPos="true"/>
    <busStop id="-11990358026" name="Beaulieu Centre" lane="-688146034#2_0" startPos="16.48" endPos="31.48" friendlyPos="true" lines="D4 4">
        <access lane="1080849886#5_0" pos="24.08" length="19.45" friendlyPos="1"/>
        <access lane="688145057#4_0" pos="3.89" length="11.52" friendlyPos="1"/>
        <access lane="688145059#4_0" pos="24.67" length="12.14" friendlyPos="1"/>
        <access lane="688146902#2_0" pos="24.09" length="6.27" friendlyPos="1"/>
        <access lane="688146910_0" pos="0.20" length="18.36" friendlyPos="1"/>
    </busStop>
    <busStop id="-11990358027" name="Beaulieu Plus" lane="-1080849877#3_0" startPos="16.88" endPos="31.88" friendlyPos="true" lines="D4 4">
        <access lane="-257534086_0" pos="1.25" length="17.30" friendlyPos="1"/>
        <access lane="38000955#14_0" pos="47.39" length="14.49" friendlyPos="1"/>
        <access lane="38000955#15_0" pos="0.00" length="13.56" friendlyPos="1"/>
        <access lane="38000958#3_0" pos="38.08" length="11.97" friendlyPos="1"/>
        <access lane="688181591#1_0" pos="38.26" length="7.16" friendlyPos="1"/>
    </busStop>
    <busStop id="-11990358028" name="18 Juin" lane="-1080849877#16_0" startPos="18.75" endPos="33.75" friendlyPos="true" lines="D4 4">
        <access lane="-1221077751_0" pos="3.76" length="16.88" friendlyPos="1"/>
        <access lane="1159683048#1_0" pos="14.35" length="9.83" friendlyPos="1"/>
        <access lane="1221077751_0" pos="0.00" length="18.31" friendlyPos="1"/>
        <access lane="38000955#1_0" pos="18.94" length="17.20" friendlyPos="1"/>
        <access lane="38000955#2_0" pos="0.00" length="12.02" friendlyPos="1"/>
    </busStop>
    <busStop id="-11990358029" name="18 Juin" lane="-1080849877#13_0" startPos="0.00" endPos="15.00" friendlyPos="true">
        <access lane="1159683048#0_0" pos="34.97" length="9.28" friendlyPos="1"/>
        <access lane="688146919#1_0" pos="0.20" length="7.53" friendlyPos="1"/>
        <access lane="688146919#2_0" pos="0.20" length="5.51" friendlyPos="1"/>
        <access lane="688146919#3_0" pos="0.00" length="5.99" friendlyPos="1"/>
        <access lane="688181591#7_0" pos="71.92" length="4.49" friendlyPos="1"/>
    </busStop>
    <busStop id="-11990358030" name="Espace Commercial" lane="-1080849858#15_0" startPos="47.77" endPos="62.77" friendlyPos="true" lines="D4 4">
        <access lane="516320947#13_0" pos="0.00" length="18.37" friendlyPos="1"/>
        <access lane="516320947#14_0" pos="0.00" length="19.34" friendlyPos="1"/>
        <access lane="688153064#8_0" pos="25.04" length="8.31" friendlyPos="1"/>
        <access lane="688159388_0" pos="0.00" length="9.20" friendlyPos="1"/>
        <access lane="688159392#1_0" pos="25.68" length="7.71" friendlyPos="1"/>
    </busStop>
    <busStop id="-11990358031" name="Beaulieu Sud" lane="-186356739#1_0" startPos="4.67" endPos="19.67" friendlyPos="true" lines="D4 4"/>
    <busStop id="-11990358033" name="Allemagne" lane="-24820307_0" startPos="43.21" endPos="58.21" friendlyPos="true" lines="D4 4 13 14"/>
    <busStop id="-11990358034" name="Le Treuil" lane="-186195228_0" startPos="26.49" endPos="41.49" friendlyPos="true" lines="D4 4 13">
        <access lane="-1148913899#0_0" pos="21.66" length="33.99" friendlyPos="1"/>
        <access lane="1148913899#0_0" pos="36.52" length="38.79" friendlyPos="1"/>
        <access lane="1148913899#1_0" pos="0.00" length="57.17" friendlyPos="1"/>
        <access lane="1149294070_0" pos="33.09" length="20.69" friendlyPos="1"/>
        <access lane="304082025#1_0" pos="91.86" length="57.92" friendlyPos="1"/>
    </busStop>
    <busStop id="-11990358035" name="Clinique" lane="-304374384#3_0" startPos="4.95" endPos="19.95" friendlyPos="true" lines="D4 4"/>
    <busStop id="-11990358036" name="Bourgogne" lane="-412955699_0" startPos="0.00" endPos="3.80" friendlyPos="true" lines="D4 4"/>
    <busStop id="-11990358037" name="Bourgogne" lane="-304374384#6_0" startPos="3.94" endPos="18.94" friendlyPos="true"/>
    <busStop id="-11990358050" name="Cité des Minimes" lane="-42350932#9_0" startPos="12.38" endPos="27.38" friendlyPos="true"/>
    <busStop id="-11990358051" name="Plage des Minimes" lane="-42350932#0_0" startPos="6.69" endPos="21.69" friendlyPos="true"/>
    <busStop id="-11994795673" name="Remparts" lane="-293018008#2_0" startPos="0.00" endPos="15.00" friendlyPos="true"/>
    <busStop id="-11994795675" name="Plage de la Concurrence" lane="-23166434#0_0" startPos="14.71" endPos="29.71" friendlyPos="true" lines="6"/>
    <busStop id="-11994795682" name="Philippe Vincent" lane="-304095450#6_0" startPos="33.08" endPos="48.08" friendlyPos="true" lines="6"/>
    <busStop id="-11994795687" name="Bâtiment 23" lane="-38336727#2_0" startPos="6.23" endPos="21.23" friendlyPos="true" lines="6 7a 7b D1"/>
    <busStop id="-11994795691" name="Bâtiment 23" lane="-23160886#2_0" startPos="1.26" endPos="16.26" friendlyPos="true"/>
    <busStop id="-11994795692" name="Bourbonnais" lane="-762862102#9_0" startPos="31.12" endPos="46.12" friendlyPos="true" lines="6"/>
    <busStop id="-11994795693" name="Bourbonnais" lane="-762862102#9_0" startPos="12.11" endPos="27.11" friendlyPos="true"/>
    <busStop id="-11994795696" name="Bretagne" lane="-762862102#0_0" startPos="15.81" endPos="30.81" friendlyPos="true" lines="6 D1"/>
    <busStop id="-11994795697" name="Bretagne" lane="-762862102#2_0" startPos="5.20" endPos="20.20" friendlyPos="true"/>
    <busStop id="-11994795699" name="La Grenouillère" lane="-304956347#1_0" startPos="4.09" endPos="19.09" friendlyPos="true" lines="6 D1"/>
    <busStop id="-11994795700" name="La Grenouillère" lane="-304956347#2_0" startPos="4.58" endPos="19.58" friendlyPos="true"/>
    <busStop id="-11994795701" name="Annette Epaud" lane="-68254500_0" startPos="13.42" endPos="28.42" friendlyPos="true" lines="7a 7b D1 6"/>
    <busStop id="-11994795702" name="Pierre Loti" lane="-397092955_0" startPos="1.34" endPos="16.34" friendlyPos="true"/>
    <busStop id="-11994795704" name="Pierre Loti" lane="-397092956_0" startPos="50.69" endPos="65.69" friendlyPos="true" lines="N1 D1 6"/>
    <busStop id="-11994795707" name="Athènes" lane="-256000780_0" startPos="11.57" endPos="26.57" friendlyPos="true"/>
    <busStop id="-11994795708" name="Athènes" lane="-303931881#0_0" startPos="0.00" endPos="15.00" friendlyPos="true" lines="D2 6"/>
    <busStop id="-11994795710" name="Luxembourg" lane="-361422358_0" startPos="46.93" endPos="61.93" friendlyPos="true" lines="6"/>
    <busStop id="-11994795711" name="Ludothèque" lane="-304099061#1_0" startPos="0.00" endPos="15.00" friendlyPos="true" lines="6"/>
    <busStop id="-11994795713" name="Prague" lane="-38547876#3_0" startPos="53.79" endPos="68.79" friendlyPos="true"/>
    <busStop id="-11994795714" name="Prague" lane="-38547876#3_0" startPos="23.28" endPos="38.28" friendlyPos="true" lines="6"/>
    <busStop id="-11994795716" name="Collège Jean Guiton" lane="-37848345#2_0" startPos="13.06" endPos="28.06" friendlyPos="true" lines="6"/>
    <busStop id="-11994795718" name="Collège Jean Guiton" lane="-367615995#1_0" startPos="0.00" endPos="14.79" friendlyPos="true"/>
    <busStop id="-11994795719" name="Centre Commercial du Fief Rose" lane="-37848345#1_0" startPos="66.28" endPos="81.28" friendlyPos="true" lines="6"/>
    <busStop id="-11994795720" name="ZAC La Vallée" lane="-843578508#0_0" startPos="59.60" endPos="74.60" friendlyPos="true" lines="10 11 6"/>
    <busStop id="-11994795721" name="Pas des Laquais" lane="-1080851839#2_0" startPos="0.00" endPos="15.00" friendlyPos="true" lines="10 11 6"/>
    <busStop id="-11994795722" name="La Vallée" lane="-303578306#0_0" startPos="74.83" endPos="89.83" friendlyPos="true"/>
    <busStop id="-11994795723" name="La Vallée" lane="-303578306#0_0" startPos="98.48" endPos="113.48" friendlyPos="true" lines="10 6"/>
    <busStop id="-11994795725" name="Les Charmilles" lane="-1378595521_0" startPos="17.71" endPos="32.71" friendlyPos="true" lines="10 6"/>
    <busStop id="-11994795726" name="RTCR" lane="-37848323#1_0" startPos="0.00" endPos="15.00" friendlyPos="true"/>
    <busStop id="-11994795727" name="RTCR" lane="-37848323#1_0" startPos="18.51" endPos="33.51" friendlyPos="true" lines="10 6"/>
    <busStop id="-11994795728" name="La Tramontane" lane="-564069588#5_0" startPos="0.00" endPos="13.72" friendlyPos="true" lines="6"/>
    <busStop id="-12006579184" name="La Vaurie" lane="-1173015421#1_0" startPos="0.00" endPos="12.36" friendlyPos="true" lines="7a"/>
    <busStop id="-12006579186" name="Mairie de Périgny" lane="-235458994#2_0" startPos="6.79" endPos="21.79" friendlyPos="true"/>
    <busStop id="-12006579188" name="Mairie de Périgny" lane="-1154800695_0" startPos="9.52" endPos="24.52" friendlyPos="true"/>
    <busStop id="-12006579189" name="Pommeraie" lane="-304798252#1_0" startPos="2.07" endPos="17.07" friendlyPos="true"/>
    <busStop id="-12006579190" name="Pommeraie" lane="-304798252#1_0" startPos="17.95" endPos="32.95" friendlyPos="true" lines="7a 8"/>
    <busStop id="-12006579191" name="ZI de Périgny" lane="-232112563#2_0" startPos="99.58" endPos="114.58" friendlyPos="true" lines="7a"/>
    <busStop id="-12006579192" name="Paul Langevin" lane="-46914635#1_0" startPos="357.84" endPos="372.84" friendlyPos="true" lines="7a"/>
    <busStop id="-12006579193" name="Louis Lumière" lane="-46914635#1_0" startPos="69.43" endPos="84.43" friendlyPos="true" lines="7a"/>
    <busStop id="-12006579195" name="Louis Lumière" lane="-46914635#1_0" startPos="31.94" endPos="46.94" friendlyPos="true"/>
    <busStop id="-12006579201" name="Rue du Poteau" lane="-244007943#3_0" startPos="0.57" endPos="15.57" friendlyPos="true" lines="7a"/>
    <busStop id="-12006579203" name="Canal de Rompsay" lane="-71165857#0_0" startPos="6.09" endPos="21.09" friendlyPos="true"/>
    <busStop id="-12006579204" name="Maison de Retraite" lane="-304780665#6_0" startPos="2.40" endPos="17.40" friendlyPos="true" lines="7a 7b"/>
    <busStop id="-12006579205" name="Géraniums" lane="-234422956#0_0" startPos="236.18" endPos="251.18" friendlyPos="true" lines="7a 7b"/>
    <busStop id="-12006579206" name="Géraniums" lane="-234422956#0_0" startPos="178.60" endPos="193.60" friendlyPos="true"/>
    <busStop id="-12006579207" name="Ravel" lane="-1080849842_0" startPos="0.00" endPos="13.16" friendlyPos="true"/>
    <busStop id="-12006579209" name="Ravel" lane="-515361071#5_0" startPos="6.93" endPos="21.93" friendlyPos="true" lines="7a 7b"/>
    <busStop id="-12006579210" name="Cimetière de Saint-Éloi" lane="-24821900#2_0" startPos="40.14" endPos="55.14" friendlyPos="true"/>