<?xml version="1.0" encoding="UTF-8"?>

<!-- generated on 2025-12-29 18:34:19.058713 by gtfs2pt.py v1_22_0+0002-63e50f52594
<configuration>
    <gtfs value="ca_la_rochelle-aggregated-gtfs.zip"/>
    <date value="20251124"/>
    <modes value="bus"/>
    <network value="cda_la_rochelle.net.xml"/>
    <stops value="busstop.add.xml"/>
</configuration>
-->

<additional xmlns:xsi="http://www.w3.org/2001/XMLSchema-instance" xsi:noNamespaceSchemaLocation="http://sumo.dlr.de/xsd/additional_file.xsd">
    <busStop id="CA_LA_ROCHELLE:VehicleJourney:C3348497.0" lane="1291315332_0" startPos="0.00" endPos="13.00" friendlyPos="true" name="Belle Aire"/>
    <busStop id="CA_LA_ROCHELLE:VehicleJourney:C3348497.1" lane="-332649967#7_0" startPos="0.00" endPos="13.00" friendlyPos="true" name="Malidor"/>
    <busStop id="CA_LA_ROCHELLE:VehicleJourney:C3348497.2" lane="-332649967#3_0" startPos="36.58" endPos="49.58" friendlyPos="true" name="Modigliani"/>
    <busStop id="CA_LA_ROCHELLE:VehicleJourney:C3348497.3" lane="-367406285#1_0" startPos="48.21" endPos="61.21" friendlyPos="true" name="Jaurès"/>
    <busStop id="CA_LA_ROCHELLE:VehicleJourney:C3348497.4" lane="-332649982#0_0" startPos="0.00" endPos="13.00" friendlyPos="true" name="Jules Ferry"/>
    <busStop id="CA_LA_ROCHELLE:VehicleJourney:C3348497.5" lane="360579835#1_0" startPos="29.68" endPos="42.68" friendlyPos="true" name="Alstom"/>
    <busStop id="CA_LA_ROCHELLE:VehicleJourney:C3348497.6" lane="46891985#3_0" startPos="0.86" endPos="13.86" friendlyPos="true" name="Les Iles"/>
    <busStop id="CA_LA_ROCHELLE:VehicleJourney:C3348497.7" lane="305516237#0_0" startPos="3.19" endPos="16.19" friendlyPos="true" name="Salengro"/>
    <busStop id="CA_LA_ROCHELLE:VehicleJourney:C3348497.8" lane="749303419#1_0" startPos="11.21" endPos="24.21" friendlyPos="true" name="Normandin"/>
    <busStop id="CA_LA_ROCHELLE:VehicleJourney:C3348497.9" lane="40744245#2_0" startPos="45.42" endPos="58.42" friendlyPos="true" name="Les Frênes"/>
    <busStop id="CA_LA_ROCHELLE:VehicleJourney:C3348497.10" lane="40744245#7_0" startPos="133.73" endPos="146.73" friendlyPos="true" name="Octroi"/>
    <busStop id="CA_LA_ROCHELLE:VehicleJourney:C3348497.11" lane="1290291027#0_0" startPos="20.62" endPos="33.62" friendlyPos="true" name="Eglise de Tasdon"/>
    <busStop id="CA_LA_ROCHELLE:VehicleJourney:C3348497.12" lane="-39695983#0_0" startPos="16.48" endPos="29.48" friendlyPos="true" name="Gare La Rochelle - Jean Bouche"/>
    <busStop id="CA_LA_ROCHELLE:VehicleJourney:C3348497.13" lane="291299103#0_0" startPos="40.84" endPos="53.84" friendlyPos="true" name="Gare La Rochelle - Jean Moulin"/>
    <busStop id="CA_LA_ROCHELLE:VehicleJourney:C3348497.14" lane="676065322#0_0" startPos="29.01" endPos="42.01" friendlyPos="true" name="Hôpital"/>
    <busStop id="CA_LA_ROCHELLE:VehicleJourney:C3348497.15" lane="1296058758#0_0" startPos="0.00" endPos="13.00" friendlyPos="true" name="Dames Blanches (Maubec)"/>
    <busStop id="CA_LA_ROCHELLE:VehicleJourney:C3348497.16" lane="289724587#1_0" startPos="7.38" endPos="20.38" friendlyPos="true" name="Grosse Horloge">
        <access friendlyPos="true" lane="18886596_0" pos="0.00" length="24.47"/>
        <access friendlyPos="true" lane="18888422_0" pos="29.18" length="26.84"/>
        <access friendlyPos="true" lane="31903804#0_0" pos="13.58" length="31.96"/>
        <access friendlyPos="true" lane="31903804#1_0" pos="0.19" length="11.86"/>
        <access friendlyPos="true" lane="555797643#0_0" pos="4.46" length="20.63"/>
        <access friendlyPos="true" lane="555797643#1_0" pos="0.00" length="20.60"/>
        <access friendlyPos="true" lane="555797644_0" pos="4.18" length="23.11"/>
        <access friendlyPos="true" lane="766676157_0" pos="0.98" length="48.36"/>
        <access friendlyPos="true" lane="948470002_0" pos="24.10" length="22.97"/>
        <access friendlyPos="true" lane="948710732#4_0" pos="11.01" length="50.86"/>
    </busStop>
    <busStop id="CA_LA_ROCHELLE:VehicleJourney:C3348497.17" lane="-18891442_0" startPos="48.20" endPos="61.20" friendlyPos="true" name="Banque de France"/>
    <busStop id="CA_LA_ROCHELLE:VehicleJourney:C3348497.18" lane="246490249_0" startPos="0.86" endPos="13.86" friendlyPos="true" name="Place de Verdun">
        <access friendlyPos="true" lane="-1295735942_0" pos="0.00" length="19.00"/>
        <access friendlyPos="true" lane="-1302273601_0" pos="0.20" length="11.84"/>
        <access friendlyPos="true" lane="-1302528191_0" pos="0.00" length="6.85"/>
        <access friendlyPos="true" lane="-758598878#0_0" pos="0.19" length="24.12"/>
        <access friendlyPos="true" lane="1295735942_0" pos="1.26" length="18.00"/>
        <access friendlyPos="true" lane="1302273601_0" pos="0.00" length="10.18"/>
        <access friendlyPos="true" lane="1302499282_0" pos="0.19" length="17.30"/>
        <access friendlyPos="true" lane="1302528191_0" pos="0.20" length="3.19"/>
        <access friendlyPos="true" lane="676384840#6_0" pos="75.49" length="2.34"/>
        <access friendlyPos="true" lane="758598878#0_0" pos="0.00" length="23.34"/>
    </busStop>
    <busStop id="CA_LA_ROCHELLE:VehicleJourney:C3348497.19" lane="-23062681#5_0" startPos="15.40" endPos="28.40" friendlyPos="true" name="Claude Masse"/>
    <busStop id="CA_LA_ROCHELLE:VehicleJourney:C3348497.20" lane="-154888167#8_0" startPos="22.36" endPos="35.36" friendlyPos="true" name="Coligny"/>
    <busStop id="CA_LA_ROCHELLE:VehicleJourney:C3348497.21" lane="-154888167#2_0" startPos="0.00" endPos="13.00" friendlyPos="true" name="Missy"/>
    <busStop id="CA_LA_ROCHELLE:VehicleJourney:C3348497.22" lane="-354878246#0_0" startPos="57.68" endPos="70.68" friendlyPos="true" name="Saint-Maurice"/>
    <busStop id="CA_LA_ROCHELLE:VehicleJourney:C3348497.23" lane="-256000778#0_0" startPos="0.00" endPos="13.00" friendlyPos="true" name="Quatre Fages"/>
    <busStop id="CA_LA_ROCHELLE:VehicleJourney:C3348497.24" lane="-68254507#0_0" startPos="22.42" endPos="35.42" friendlyPos="true" name="Rossignolette"/>
    <busStop id="CA_LA_ROCHELLE:VehicleJourney:C3348497.25" lane="-38369675#2_0" startPos="70.84" endPos="83.84" friendlyPos="true" name="Cité"/>
    <busStop id="CA_LA_ROCHELLE:VehicleJourney:C3348497.26" lane="1291315343#2_0" startPos="0.00" endPos="13.00" friendlyPos="true" name="Oncor"/>
    <busStop id="CA_LA_ROCHELLE:VehicleJourney:C3348497.27" lane="981239088#4_0" startPos="56.19" endPos="69.19" friendlyPos="true" name="Place des Halles"/>
    <busStop id="CA_LA_ROCHELLE:VehicleJourney:C3348497.28" lane="38351395#12_0" startPos="1.55" endPos="14.55" friendlyPos="true" name="Eglise de Laleu"/>
    <busStop id="CA_LA_ROCHELLE:VehicleJourney:C3348497.29" lane="303942643#5_0" startPos="7.16" endPos="20.16" friendlyPos="true" name="Les Rivauds"/>
    <busStop id="CA_LA_ROCHELLE:VehicleJourney:C3348497.30" lane="-303942443#4_0" startPos="13.13" endPos="26.13" friendlyPos="true" name="Laleu Les Douanes"/>
    <busStop id="CA_LA_ROCHELLE:VehicleJourney:C3348497.31" lane="303942443#0_0" startPos="0.00" endPos="13.00" friendlyPos="true" name="Aéroport"/>
    <busStop id="CA_LA_ROCHELLE:VehicleJourney:C3348497.32" lane="303942443#4_0" startPos="51.79" endPos="64.79" friendlyPos="true" name="Laleu Les Douanes"/>
    <busStop id="CA_LA_ROCHELLE:VehicleJourney:C3348497.33" lane="-38369678#4_0" startPos="28.65" endPos="41.65" friendlyPos="true" name="Colibri"/>
    <busStop id="CA_LA_ROCHELLE:VehicleJourney:C3348498.31" lane="-303942443#0_0" startPos="18.47" endPos="31.46" friendlyPos="true" name="Aéroport"/>
    <busStop id="CA_LA_ROCHELLE:VehicleJourney:C3348499.25" lane="68254499#1_0" startPos="65.31" endPos="78.31" friendlyPos="true" name="Vaugouin"/>
    <busStop id="CA_LA_ROCHELLE:VehicleJourney:C3348499.26" lane="38369627#0_0" startPos="10.07" endPos="23.07" friendlyPos="true" name="Jacques Henry"/>
    <busStop id="CA_LA_ROCHELLE:VehicleJourney:C3348499.27" lane="38369627#3_0" startPos="0.82" endPos="13.82" friendlyPos="true" name="Laleu Sports"/>
    <busStop id="CA_LA_ROCHELLE:VehicleJourney:C3348499.28" lane="304090436#5_0" startPos="42.19" endPos="55.19" friendlyPos="true" name="Montréal"/>
    <busStop id="CA_LA_ROCHELLE:VehicleJourney:C3348499.29" lane="304090436#12_0" startPos="0.00" endPos="13.00" friendlyPos="true" name="Chirons Longs"/>
    <busStop id="CA_LA_ROCHELLE:VehicleJourney:C3348499.30" lane="1200858876#0_0" startPos="0.00" endPos="13.00" friendlyPos="true" name="Duquesne"/>
    <busStop id="CA_LA_ROCHELLE:VehicleJourney:C3348499.31" lane="354887452#1_0" startPos="9.35" endPos="22.35" friendlyPos="true" name="Montcalm"/>
    <busStop id="CA_LA_ROCHELLE:VehicleJourney:C3348499.32" lane="304090029#1_0" startPos="99.78" endPos="112.78" friendlyPos="true" name="Port La Pallice"/>
    <busStop id="CA_LA_ROCHELLE:VehicleJourney:C3348499.33" lane="1290291029#5_0" startPos="4.57" endPos="17.57" friendlyPos="true" name="La Sirène"/>
    <busStop id="CA_LA_ROCHELLE:VehicleJourney:C3348500.1" lane="22998177#4_0" startPos="0.00" endPos="13.00" friendlyPos="true" name="Frigo"/>
    <busStop id="CA_LA_ROCHELLE:VehicleJourney:C3348500.2" lane="-1200858876#0_0" startPos="30.12" endPos="43.12" friendlyPos="true" name="Duquesne"/>
    <busStop id="CA_LA_ROCHELLE:VehicleJourney:C3348500.3" lane="-304090436#9_0" startPos="0.00" endPos="13.00" friendlyPos="true" name="Chirons Longs"/>
    <busStop id="CA_LA_ROCHELLE:VehicleJourney:C3348500.4" lane="-304090436#5_0" startPos="57.06" endPos="70.06" friendlyPos="true" name="Montréal"/>
    <busStop id="CA_LA_ROCHELLE:VehicleJourney:C3348500.5" lane="-38369627#3_0" startPos="26.36" endPos="39.36" friendlyPos="true" name="Laleu Sports"/>
    <busStop id="CA_LA_ROCHELLE:VehicleJourney:C3348500.6" lane="-38369627#0_0" startPos="31.81" endPos="44.81" friendlyPos="true" name="Jacques Henry"/>
    <busStop id="CA_LA_ROCHELLE:VehicleJourney:C3348500.7" lane="-68254499#1_0" startPos="0.00" endPos="13.00" friendlyPos="true" name="Vaugouin"/>
    <busStop id="CA_LA_ROCHELLE:VehicleJourney:C3348500.8" lane="1363408878#2_0" startPos="19.69" endPos="32.69" friendlyPos="true" name="Rossignolette"/>
    <busStop id="CA_LA_ROCHELLE:VehicleJourney:C3348500.9" lane="256000779_0" startPos="71.63" endPos="84.63" friendlyPos="true" name="Quatre Fages"/>
    <busStop id="CA_LA_ROCHELLE:VehicleJourney:C3348500.10" lane="354878246#0_0" startPos="34.22" endPos="47.22" friendlyPos="true" name="Saint-Maurice"/>
    <busStop id="CA_LA_ROCHELLE:VehicleJourney:C3348500.11" lane="154888167#3_0" startPos="33.12" endPos="46.12" friendlyPos="true" name="Missy"/>
    <busStop id="CA_LA_ROCHELLE:VehicleJourney:C3348500.12" lane="23062681#1_0" startPos="0.00" endPos="13.00" friendlyPos="true" name="Coligny"/>
    <busStop id="CA_LA_ROCHELLE:VehicleJourney:C3348500.13" lane="23062681#4_0" startPos="16.29" endPos="29.29" friendlyPos="true" name="Claude Masse"/>
    <busStop id="CA_LA_ROCHELLE:VehicleJourney:C3348500.14" lane="246490260#0_0" startPos="10.20" endPos="23.20" friendlyPos="true" name="Place de Verdun">
        <access friendlyPos="true" lane="-303938883_0" pos="29.67" length="22.67"/>
        <access friendlyPos="true" lane="-304507683#0_0" pos="0.00" length="22.31"/>
        <access friendlyPos="true" lane="-304507683#1_0" pos="10.74" length="15.96"/>
        <access friendlyPos="true" lane="1207390121#0_0" pos="0.21" length="25.69"/>
        <access friendlyPos="true" lane="1207390121#1_0" pos="3.26" length="13.23"/>
        <access friendlyPos="true" lane="1207390121#2_0" pos="0.00" length="11.82"/>
        <access friendlyPos="true" lane="1207390121#3_0" pos="0.00" length="26.59"/>
        <access friendlyPos="true" lane="304507683#0_0" pos="0.47" length="25.96"/>
        <access friendlyPos="true" lane="304507683#1_0" pos="5.30" length="20.76"/>
        <access friendlyPos="true" lane="676384840#6_0" pos="5.40" length="24.25"/>
    </busStop>
    <busStop id="CA_LA_ROCHELLE:VehicleJourney:C3348500.15" lane="18891443#1_0" startPos="24.39" endPos="37.39" friendlyPos="true" name="Dupaty"/>
    <busStop id="CA_LA_ROCHELLE:VehicleJourney:C3348500.16" lane="304762330#1_0" startPos="13.23" endPos="26.23" friendlyPos="true" name="Dames Blanches (Durand)"/>
    <busStop id="CA_LA_ROCHELLE:VehicleJourney:C3348500.17" lane="676065323#0_0" startPos="8.77" endPos="21.77" friendlyPos="true" name="Hôpital"/>
    <busStop id="CA_LA_ROCHELLE:VehicleJourney:C3348500.18" lane="1299456786#1_0" startPos="9.18" endPos="22.18" friendlyPos="true" name="Gare La Rochelle - Jean Moulin"/>
    <busStop id="CA_LA_ROCHELLE:VehicleJourney:C3348500.19" lane="39695983#0_0" startPos="11.41" endPos="24.41" friendlyPos="true" name="Gare La Rochelle - Jean Bouche"/>
    <busStop id="CA_LA_ROCHELLE:VehicleJourney:C3348500.20" lane="-749303403_0" startPos="0.00" endPos="13.00" friendlyPos="true" name="Eglise de Tasdon"/>
    <busStop id="CA_LA_ROCHELLE:VehicleJourney:C3348500.21" lane="40744253#2_0" startPos="31.09" endPos="44.09" friendlyPos="true" name="Octroi"/>
    <busStop id="CA_LA_ROCHELLE:VehicleJourney:C3348500.22" lane="40744253#9_0" startPos="58.55" endPos="71.55" friendlyPos="true" name="Les Frênes"/>
    <busStop id="CA_LA_ROCHELLE:VehicleJourney:C3348500.23" lane="458963272_0" startPos="2.67" endPos="15.67" friendlyPos="true" name="Normandin"/>
    <busStop id="CA_LA_ROCHELLE:VehicleJourney:C3348500.24" lane="-1082208201#3_0" startPos="21.86" endPos="34.86" friendlyPos="true" name="Salengro"/>
    <busStop id="CA_LA_ROCHELLE:VehicleJourney:C3348500.25" lane="171537703#1_0" startPos="0.58" endPos="13.58" friendlyPos="true" name="Les Iles"/>
    <busStop id="CA_LA_ROCHELLE:VehicleJourney:C3348500.26" lane="360579836#1_0" startPos="6.51" endPos="19.51" friendlyPos="true" name="Alstom"/>
    <busStop id="CA_LA_ROCHELLE:VehicleJourney:C3348500.27" lane="332649982#1_0" startPos="9.44" endPos="22.44" friendlyPos="true" name="Jules Ferry"/>
    <busStop id="CA_LA_ROCHELLE:VehicleJourney:C3348500.28" lane="360582849#2_0" startPos="1.38" endPos="14.38" friendlyPos="true" name="Jaurès"/>
    <busStop id="CA_LA_ROCHELLE:VehicleJourney:C3348500.29" lane="332649967#3_0" startPos="0.00" endPos="13.00" friendlyPos="true" name="Modigliani"/>
    <busStop id="CA_LA_ROCHELLE:VehicleJourney:C3348500.30" lane="332649967#8_0" startPos="0.00" endPos="13.00" friendlyPos="true" name="Malidor"/>
    <busStop id="CA_LA_ROCHELLE:VehicleJourney:C3348500.31" lane="1291315333_0" startPos="0.00" endPos="13.00" friendlyPos="true" name="Belle Aire"/>
    <busStop id="CA_LA_ROCHELLE:VehicleJourney:C3348508.3" lane="-38369678#0_0" startPos="6.22" endPos="19.22" friendlyPos="true" name="Oncor"/>
    <busStop id="CA_LA_ROCHELLE:VehicleJourney:C3348508.4" lane="38369675#0_0" startPos="46.75" endPos="59.75" friendlyPos="true" name="Cité"/>
    <busStop id="CA_LA_ROCHELLE:VehicleJourney:C3348596.0" lane="304054896_0" startPos="0.00" endPos="13.00" friendlyPos="true" name="Place de Verdun"/>
    <busStop id="CA_LA_ROCHELLE:VehicleJourney:C3349867.0" lane="-37740154#3_0" startPos="0.00" endPos="13.00" friendlyPos="true" name="Les Mouettes"/>
    <busStop id="CA_LA_ROCHELLE:VehicleJourney:C3349867.1" lane="-519983774#2_0" startPos="4.36" endPos="17.36" friendlyPos="true" name="Rose des Vents"/>
    <busStop id="CA_LA_ROCHELLE:VehicleJourney:C3349867.2" lane="-519983775#5_0" startPos="13.96" endPos="26.96" friendlyPos="true" name="Bourg de L'Houmeau"/>
    <busStop id="CA_LA_ROCHELLE:VehicleJourney:C3349867.3" lane="-306481032#8_0" startPos="12.68" endPos="25.68" friendlyPos="true" name="Charles Dervau"/>
    <busStop id="CA_LA_ROCHELLE:VehicleJourney:C3349867.4" lane="-306481032#4_0" startPos="12.95" endPos="25.95" friendlyPos="true" name="Victor Hugo"/>
    <busStop id="CA_LA_ROCHELLE:VehicleJourney:C3349867.5" lane="306481035#0_0" startPos="139.07" endPos="152.07" friendlyPos="true" name="Monsidun"/>
    <busStop id="CA_LA_ROCHELLE:VehicleJourney:C3349867.6" lane="306481035#5_0" startPos="22.83" endPos="35.83" friendlyPos="true" name="Mitterrand"/>
    <busStop id="CA_LA_ROCHELLE:VehicleJourney:C3349867.7" lane="-992457223#0_0" startPos="0.00" endPos="13.00" friendlyPos="true" name="Stade La Fontaine"/>
    <busStop id="CA_LA_ROCHELLE:VehicleJourney:C3349867.8" lane="-445645228#0_0" startPos="456.85" endPos="469.85" friendlyPos="true" name="Moulin du Bonheur"/>
    <busStop id="CA_LA_ROCHELLE:VehicleJourney:C3349867.9" lane="445645032#0_0" startPos="14.71" endPos="27.71" friendlyPos="true" name="Le Bonnodeau">
        <access friendlyPos="true" lane="-1430301686_0" pos="0.00" length="32.31"/>
        <access friendlyPos="true" lane="-1430301687_0" pos="0.00" length="42.87"/>
        <access friendlyPos="true" lane="-37917281#0_0" pos="135.54" length="43.08"/>
        <access friendlyPos="true" lane="1430301685_0" pos="0.00" length="41.44"/>
        <access friendlyPos="true" lane="1430301686_0" pos="4.31" length="29.35"/>
        <access friendlyPos="true" lane="1430301687_0" pos="0.20" length="42.68"/>
        <access friendlyPos="true" lane="303582870_0" pos="0.00" length="47.15"/>
        <access friendlyPos="true" lane="304054214_0" pos="22.15" length="32.63"/>
        <access friendlyPos="true" lane="37712089_0" pos="0.00" length="52.08"/>
        <access friendlyPos="true" lane="37917281#0_0" pos="0.00" length="38.74"/>
    </busStop>
    <busStop id="CA_LA_ROCHELLE:VehicleJourney:C3349867.10" lane="218986244#0_0" startPos="23.84" endPos="36.84" friendlyPos="true" name="Clavier"/>
    <busStop id="CA_LA_ROCHELLE:VehicleJourney:C3349867.11" lane="843578508#0_0" startPos="12.58" endPos="25.58" friendlyPos="true" name="Fief Rose"/>
    <busStop id="CA_LA_ROCHELLE:VehicleJourney:C3349867.12" lane="1080851839#2_0" startPos="1.47" endPos="14.47" friendlyPos="true" name="Pas des Laquais"/>
    <busStop id="CA_LA_ROCHELLE:VehicleJourney:C3349867.13" lane="303578306#0_0" startPos="18.55" endPos="31.55" friendlyPos="true" name="La Vallée"/>
    <busStop id="CA_LA_ROCHELLE:VehicleJourney:C3349867.14" lane="1378595521_0" startPos="7.83" endPos="20.83" friendlyPos="true" name="Les Charmilles"/>
    <busStop id="CA_LA_ROCHELLE:VehicleJourney:C3349867.15" lane="37848323#1_0" startPos="83.81" endPos="96.81" friendlyPos="true" name="Moulin de Vendôme"/>
    <busStop id="CA_LA_ROCHELLE:VehicleJourney:C3349867.16" lane="-37848352#0_0" startPos="37.35" endPos="50.35" friendlyPos="true" name="Alizés"/>
    <busStop id="CA_LA_ROCHELLE:VehicleJourney:C3349867.17" lane="116354869#0_0" startPos="5.99" endPos="18.99" friendlyPos="true" name="Lycée Vieljeux"/>
    <busStop id="CA_LA_ROCHELLE:VehicleJourney:C3349867.18" lane="116354869#6_0" startPos="25.54" endPos="38.54" friendlyPos="true" name="11 Novembre 1918"/>
    <busStop id="CA_LA_ROCHELLE:VehicleJourney:C3349867.19" lane="39097841#0_0" startPos="0.00" endPos="13.00" friendlyPos="true" name="Piscine"/>
    <busStop id="CA_LA_ROCHELLE:VehicleJourney:C3349867.20" lane="303938885#1_0" startPos="45.72" endPos="58.72" friendlyPos="true" name="Esplanade des Parcs"/>
    <busStop id="CA_LA_ROCHELLE:VehicleJourney:C3349867.21" lane="1084919235#1_0" startPos="12.00" endPos="25.00" friendlyPos="true" name="Delayant"/>
    <busStop id="CA_LA_ROCHELLE:VehicleJourney:C3349867.22" lane="563711902_0" startPos="26.43" endPos="39.43" friendlyPos="true" name="Place de Verdun"/>
    <busStop id="CA_LA_ROCHELLE:VehicleJourney:C3349885.0" lane="303938884#0_0" startPos="0.00" endPos="13.00" friendlyPos="true" name="Place de Verdun">
        <access friendlyPos="true" lane="119911591#4_0" pos="6.79" length="29.71"/>
        <access friendlyPos="true" lane="119911594_0" pos="27.15" length="21.02"/>
        <access friendlyPos="true" lane="119911595#0_0" pos="0.00" length="29.28"/>
        <access friendlyPos="true" lane="303911509#0_0" pos="0.20" length="23.85"/>
        <access friendlyPos="true" lane="303911509#1_0" pos="2.19" length="15.30"/>
        <access friendlyPos="true" lane="303911509#2_0" pos="0.00" length="16.42"/>
        <access friendlyPos="true" lane="303911509#3_0" pos="0.00" length="24.70"/>
        <access friendlyPos="true" lane="303911509#4_0" pos="0.00" length="37.43"/>
        <access friendlyPos="true" lane="676384840#6_0" pos="154.04" length="13.57"/>
        <access friendlyPos="true" lane="676384841#1_0" pos="38.33" length="32.14"/>
    </busStop>
    <busStop id="CA_LA_ROCHELLE:VehicleJourney:C3349885.1" lane="303938884#2_0" startPos="79.35" endPos="92.35" friendlyPos="true" name="Delayant">
        <access friendlyPos="true" lane="1084919235#0_1" pos="114.78" length="58.60"/>
        <access friendlyPos="true" lane="1084919235#1_1" pos="32.48" length="12.42"/>
        <access friendlyPos="true" lane="18902941_0" pos="69.27" length="42.68"/>
        <access friendlyPos="true" lane="225667537#0_0" pos="0.00" length="61.99"/>
        <access friendlyPos="true" lane="225667537#1_0" pos="0.00" length="79.65"/>
        <access friendlyPos="true" lane="280356552_0" pos="81.19" length="42.00"/>
        <access friendlyPos="true" lane="280356607#3_0" pos="15.51" length="95.72"/>
        <access friendlyPos="true" lane="31671801_0" pos="0.00" length="48.10"/>
        <access friendlyPos="true" lane="39089373#3_0" pos="9.03" length="92.16"/>
        <access friendlyPos="true" lane="39089375#1_0" pos="9.61" length="83.75"/>
    </busStop>
    <busStop id="CA_LA_ROCHELLE:VehicleJourney:C3349885.2" lane="-39097848_0" startPos="38.95" endPos="51.95" friendlyPos="true" name="Porte Dauphine"/>
    <busStop id="CA_LA_ROCHELLE:VehicleJourney:C3349885.3" lane="676440782_0" startPos="40.96" endPos="53.96" friendlyPos="true" name="Piscine"/>
    <busStop id="CA_LA_ROCHELLE:VehicleJourney:C3349885.4" lane="23449137#4_0" startPos="14.25" endPos="27.25" friendlyPos="true" name="11 Novembre 1918"/>
    <busStop id="CA_LA_ROCHELLE:VehicleJourney:C3349885.5" lane="1293110783#1_0" startPos="3.03" endPos="16.03" friendlyPos="true" name="Lycée Vieljeux"/>
    <busStop id="CA_LA_ROCHELLE:VehicleJourney:C3349885.6" lane="-304085244#3_0" startPos="45.81" endPos="58.81" friendlyPos="true" name="Les Gonthières"/>
    <busStop id="CA_LA_ROCHELLE:VehicleJourney:C3349885.7" lane="37848352#0_0" startPos="19.34" endPos="32.34" friendlyPos="true" name="Alizés"/>
    <busStop id="CA_LA_ROCHELLE:VehicleJourney:C3349885.8" lane="-37848323#1_0" startPos="10.36" endPos="23.36" friendlyPos="true" name="Moulin de Vendôme"/>
    <busStop id="CA_LA_ROCHELLE:VehicleJourney:C3349885.9" lane="-1378595521_0" startPos="18.04" endPos="31.04" friendlyPos="true" name="Les Charmilles"/>
    <busStop id="CA_LA_ROCHELLE:VehicleJourney:C3349885.10" lane="-303578306#0_0" startPos="95.05" endPos="108.05" friendlyPos="true" name="La Vallée"/>
    <busStop id="CA_LA_ROCHELLE:VehicleJourney:C3349885.11" lane="-1080851839#2_0" startPos="0.00" endPos="13.00" friendlyPos="true" name="Pas des Laquais"/>
    <busStop id="CA_LA_ROCHELLE:VehicleJourney:C3349885.12" lane="-843578508#0_0" startPos="50.62" endPos="63.62" friendlyPos="true" name="Fief Rose"/>
    <busStop id="CA_LA_ROCHELLE:VehicleJourney:C3349885.13" lane="-218986244#0_0" startPos="493.82" endPos="506.82" friendlyPos="true" name="Clavier"/>
    <busStop id="CA_LA_ROCHELLE:VehicleJourney:C3349885.14" lane="-37830076#0_0" startPos="133.63" endPos="146.63" friendlyPos="true" name="Le Bonnodeau"/>
    <busStop id="CA_LA_ROCHELLE:VehicleJourney:C3349885.15" lane="303582869#4_0" startPos="223.17" endPos="236.17" friendlyPos="true" name="Moulin du Bonheur"/>
    <busStop id="CA_LA_ROCHELLE:VehicleJourney:C3349885.16" lane="992457223#2_0" startPos="1.98" endPos="14.98" friendlyPos="true" name="Stade La Fontaine"/>
    <busStop id="CA_LA_ROCHELLE:VehicleJourney:C3349885.17" lane="-306481035#8_0" startPos="2.95" endPos="15.95" friendlyPos="true" name="Mitterrand"/>
    <busStop id="CA_LA_ROCHELLE:VehicleJourney:C3349885.18" lane="-306481035#0_0" startPos="1.65" endPos="14.65" friendlyPos="true" name="Monsidun"/>
    <busStop id="CA_LA_ROCHELLE:VehicleJourney:C3349885.19" lane="306481032#3_0" startPos="34.26" endPos="47.26" friendlyPos="true" name="Victor Hugo"/>
    <busStop id="CA_LA_ROCHELLE:VehicleJourney:C3349885.20" lane="306481032#8_0" startPos="63.38" endPos="76.38" friendlyPos="true" name="Charles Dervau"/>
    <busStop id="CA_LA_ROCHELLE:VehicleJourney:C3349885.21" lane="303596573#0_0" startPos="21.75" endPos="34.75" friendlyPos="true" name="Le Cormier"/>
    <busStop id="CA_LA_ROCHELLE:VehicleJourney:C3349885.22" lane="303596573#4_0" startPos="56.08" endPos="69.08" friendlyPos="true" name="Le Clos du Chêne"/>
    <busStop id="CA_LA_ROCHELLE:VehicleJourney:C3349885.23" lane="-332348401_0" startPos="0.00" endPos="13.00" friendlyPos="true" name="Les Mouettes"/>
    <busStop id="CA_LA_ROCHELLE:VehicleJourney:C3348733.1" lane="1125034729#1_0" startPos="43.56" endPos="56.56" friendlyPos="true" name="Jourdan"/>
    <busStop id="CA_LA_ROCHELLE:VehicleJourney:C3348733.2" lane="39089402#3_0" startPos="10.08" endPos="23.08" friendlyPos="true" name="Colbert"/>
    <busStop id="CA_LA_ROCHELLE:VehicleJourney:C3348733.3" lane="39089402#10_0" startPos="8.88" endPos="21.88" friendlyPos="true" name="La Trompette"/>
    <busStop id="CA_LA_ROCHELLE:VehicleJourney:C3348733.4" lane="39089402#13_0" startPos="50.76" endPos="63.76" friendlyPos="true" name="Franck Espoir"/>
    <busStop id="CA_LA_ROCHELLE:VehicleJourney:C3348733.8" lane="37830045#4_0" startPos="12.52" endPos="25.52" friendlyPos="true" name="Les Néfliers"/>
    <busStop id="CA_LA_ROCHELLE:VehicleJourney:C3348733.9" lane="37830045#12_0" startPos="10.75" endPos="23.75" friendlyPos="true" name="Les Pommiers"/>
    <busStop id="CA_LA_ROCHELLE:VehicleJourney:C3348733.10" lane="-1302055959#4_0" startPos="52.92" endPos="65.92" friendlyPos="true" name="Avenue de Lagord"/>
    <busStop id="CA_LA_ROCHELLE:VehicleJourney:C3348733.11" lane="-1302055959#0_0" startPos="80.18" endPos="93.18" friendlyPos="true" name="Les Vanneaux"/>
    <busStop id="CA_LA_ROCHELLE:VehicleJourney:C3348733.12" lane="-1302055972#3_0" startPos="7.25" endPos="20.25" friendlyPos="true" name="André Charier"/>
    <busStop id="CA_LA_ROCHELLE:VehicleJourney:C3348733.13" lane="-91680413#1_0" startPos="16.79" endPos="29.79" friendlyPos="true" name="Fief des Jarries"/>
    <busStop id="CA_LA_ROCHELLE:VehicleJourney:C3348733.14" lane="37789201#3_0" startPos="2.03" endPos="15.03" friendlyPos="true" name="François Viète"/>
    <busStop id="CA_LA_ROCHELLE:VehicleJourney:C3348733.15" lane="218982320#7_0" startPos="49.25" endPos="62.25" friendlyPos="true" name="La Butte"/>
    <busStop id="CA_LA_ROCHELLE:VehicleJourney:C3348733.16" lane="86701285#1_0" startPos="40.35" endPos="53.35" friendlyPos="true" name="Le Rayon d'Or"/>
    <busStop id="CA_LA_ROCHELLE:VehicleJourney:C3348733.17" lane="-758195403#0_0" startPos="95.51" endPos="108.51" friendlyPos="true" name="Moulin Ragot"/>
    <busStop id="CA_LA_ROCHELLE:VehicleJourney:C3348733.18" lane="728283345_0" startPos="0.00" endPos="13.00" friendlyPos="true" name="Les Allées Vieljeux"/>
    <busStop id="CA_LA_ROCHELLE:VehicleJourney:C3348733.19" lane="303756010#1_0" startPos="7.02" endPos="20.02" friendlyPos="true" name="Nieul Le Gô"/>
    <busStop id="CA_LA_ROCHELLE:VehicleJourney:C3348733.20" lane="-37678103#2_0" startPos="36.03" endPos="49.03" friendlyPos="true" name="Mairie de Nieul-sur-Mer"/>
    <busStop id="CA_LA_ROCHELLE:VehicleJourney:C3348733.21" lane="303735637#0_0" startPos="31.42" endPos="44.42" friendlyPos="true" name="Salle Polyvalente de Nieul"/>
    <busStop id="CA_LA_ROCHELLE:VehicleJourney:C3348733.22" lane="225680520#4_0" startPos="5.41" endPos="18.41" friendlyPos="true" name="Centre Commercial de Nieul"/>
    <busStop id="CA_LA_ROCHELLE:VehicleJourney:C3348733.23" lane="37600232#9_0" startPos="0.00" endPos="13.00" friendlyPos="true" name="Les Hauts de Nieul"/>
    <busStop id="CA_LA_ROCHELLE:VehicleJourney:C3348733.24" lane="37602377_0" startPos="241.38" endPos="254.38" friendlyPos="true" name="Lauzières"/>
    <busStop id="CA_LA_ROCHELLE:VehicleJourney:C3348733.25" lane="-304638702_0" startPos="0.00" endPos="13.00" friendlyPos="true" name="L'Ouaille"/>
    <busStop id="CA_LA_ROCHELLE:VehicleJourney:C3348734.0" lane="303907281_0" startPos="0.00" endPos="13.00" friendlyPos="true" name="L'Ouaille"/>
    <busStop id="CA_LA_ROCHELLE:VehicleJourney:C3348734.1" lane="-37602377_0" startPos="22.33" endPos="35.33" friendlyPos="true" name="Lauzières"/>
    <busStop id="CA_LA_ROCHELLE:VehicleJourney:C3348734.2" lane="-37600232#9_0" startPos="147.72" endPos="160.72" friendlyPos="true" name="Les Hauts de Nieul"/>
    <busStop id="CA_LA_ROCHELLE:VehicleJourney:C3348734.3" lane="-225680520#4_0" startPos="27.45" endPos="40.45" friendlyPos="true" name="Centre Commercial de Nieul"/>
    <busStop id="CA_LA_ROCHELLE:VehicleJourney:C3348734.4" lane="-303735637#0_0" startPos="0.00" endPos="13.00" friendlyPos="true" name="Salle Polyvalente de Nieul"/>
    <busStop id="CA_LA_ROCHELLE:VehicleJourney:C3348734.5" lane="37678103#1_0" startPos="7.02" endPos="20.02" friendlyPos="true" name="Mairie de Nieul-sur-Mer"/>
    <busStop id="CA_LA_ROCHELLE:VehicleJourney:C3348734.6" lane="-303756010#1_0" startPos="67.43" endPos="80.43" friendlyPos="true" name="Nieul Le Gô"/>
    <busStop id="CA_LA_ROCHELLE:VehicleJourney:C3348734.7" lane="-37669126#4_0" startPos="2.89" endPos="15.89" friendlyPos="true" name="Les Allées Vieljeux"/>
    <busStop id="CA_LA_ROCHELLE:VehicleJourney:C3348734.8" lane="758195403#0_0" startPos="19.81" endPos="32.81" friendlyPos="true" name="Moulin Ragot"/>
    <busStop id="CA_LA_ROCHELLE:VehicleJourney:C3348734.9" lane="294920171#1_0" startPos="0.00" endPos="13.00" friendlyPos="true" name="Le Rayon d'Or"/>
    <busStop id="CA_LA_ROCHELLE:VehicleJourney:C3348734.10" lane="-218982320#7_0" startPos="0.99" endPos="13.99" friendlyPos="true" name="La Butte"/>