<?xml version='1.0' encoding='utf-8'?>
<routes xmlns:xsi="http://www.w3.org/2001/XMLSchema-instance" xsi:noNamespaceSchemaLocation="http://sumo.dlr.de/xsd/routes_file.xsd">
    <route id="CA_LA_ROCHELLE:VehicleJourney:C3348497" edges="1291315332 201619237 305704989 449840049 305573317#3 305573317#4 305535425 367406284#0 367406284#1 469084821 -332649967#8 -332649967#7 -332649967#6 -332649967#5 -332649967#4 -332649967#3 -332649967#2 -332649967#1 -332649967#0 -305515951 -332649980 -367406285#4 -367406285#3 -367406285#2 -367406285#1 -367406285#0 -360582849#2 -360582849#1 -360582849#0 -332649971#3 -332649971#2 -332649971#1 -332649971#0 -332649976#15 -332649976#14 -332649976#13 -332649976#12 -332649976#11 -332649976#10 -332649976#9 -332649976#8 -332649976#7 -332649976#6 -332649976#5 -332649976#4 -332649976#3 -332649976#2 -332649976#1 -332649976#0 -291727814#1 -291727814#0 291727813#1 291727813#2 -332649982#1 -332649982#0 -71932835#4 -71932835#3 -71932835#2 -71932835#1 -71932835#0 24822323#0 24822323#1 24822323#2 47518302#6 47518302#7 305107612 360579834#0 360579834#1 360579834#2 433198445 433198442#0 433198442#1 433198442#2 736462186#0 736462186#1 736462186#2 736462185#0 736462185#1 360579833#0 360579833#1 360579833#2 360579835#0 360579835#1 360579835#2 305106200#4 739760386#0 739760386#1 739760383 46891985#0 46891985#1 46891985#2 46891985#3 46891985#4 46891985#5 433198448#0 433198448#1 433198451#0 433198451#1 171537702 739760340 71940852 305574142#0 305574142#1 305574142#2 305574142#3 1082208202 305574139 1082208201#0 1082208201#1 1082208201#2 1082208201#3 1082208201#4 749303426#0 749303426#1 749303426#2 305516237#0 305516237#1 1138955748 1085382097#0 1085382097#1 1085382097#2 305516238 40744248 749303418#0 749303418#1 749303419#0 749303419#1 749303419#2 40744246#5 40744246#6 40744246#7 433198456#0 433198456#1 433198456#2 433198458 40744245#0 40744245#1 40744245#2 40744245#3 40744245#4 40744245#5 40744245#6 40744245#7 40744245#8 749303405 40744252#0 40744252#1 40744252#2 749303403 433201992 1290291027#0 1290291027#1 -39695983#10 -39695983#9 -39695983#8 -39695983#7 -39695983#6 -39695983#5 -39695983#4 -39695983#3 -39695983#2 -39695983#1 -39695983#0 39695976#3 -39695979#2 -39695979#1 -39695979#0 39695978#0 39695978#1 39695978#2 39695969#2 39695969#3 39695969#4 39695969#5 39695969#6 291299103#0 291299103#1 354334370 39695963 354334371 304966169 1164663447 39544399 18897259#0 18897259#1 221045783 676065324 131650754 676065322#0 676065322#1 304961540#0 304961540#1 675167011 128271664#0 128271664#1 562009059#0 562009059#1 562009059#2 232032553#0 232032553#1 1296058758#0 1296058758#1 304487700 18886565 670514939 303915652#0 303915652#1 304797019#0 304797019#1 304797019#2 289724587#0 289724587#1 289724587#2 18886596 354634247#0 354634247#1 354634247#2 354634247#3 354634247#4 -293018007#3 -293018007#2 -293018007#1 -293018007#0 -18891442 -304762331#1 -304762331#0 18890627#0 18890627#1 246487529 391202775 391202772 758598879#0 758598879#1 246490249 -758598878#0 -1302273601 1302273601 758598878#0 758598878#1 758598878#2 1293303348 323266583 246487527#0 246487527#1 565154358#0 565154358#1 565154358#2 304054896 -303428261#1 -303428261#0 -676384854 -676384858 -676384860#1 -676384860#0 -23062681#5 -23062681#4 -23062681#3 -23062681#2 -23062681#1 -23062681#0 -304099706#2 -304099706#1 -304099706#0 -154888167#9 -154888167#8 -154888167#7 -154888167#6 -154888167#5 -154888167#4 -154888167#3 -154888167#2 -154888167#1 -154888167#0 -354878246#5 -354878246#4 -354878246#3 -354878246#2 -354878246#1 -354878246#0 1171724861#0 1171724861#1 23062633 1171724870 1171724871 397092950#0 397092950#1 738448002 354878245#0 354878245#1 -1171724864 -1125028428 -1125028429 -256000778#9 -256000778#8 -256000778#7 -256000778#6 -256000778#5 -256000778#4 -256000778#3 -256000778#2 -256000778#1 -256000778#0 1361775660 256000781#5 256000781#6 256000781#0 -256000779 256000782#1 256000782#2 -68254507#4 -68254507#3 -68254507#2 -68254507#1 -68254507#0 -1363408878#2 -1363408878#1 -1363408878#0 68254509 1080851840#3 68254494 -1454203738#1 -1454203738#0 -38369675#2 -38369675#1 -38369675#0 -38369672 981239087#0 981239087#1 981239087#2 981239087#3 1291315343#0 1291315343#1 1291315343#2 1291315343#3 1291315343#4 1291315343#5 1291315343#6 1291315343#7 981239088#0 981239088#1 981239088#2 981239088#3 981239088#4 981239089 38351395#0 38351395#1 38351395#2 38351395#3 38351395#4 38351395#5 38351395#6 38351395#7 38351395#8 38351395#9 38351395#10 38351395#11 38351395#12 180982908#0 180982908#1 1291315341#0 1291315341#1 303942643#2 303942643#3 303942643#4 303942643#5 613120802#0 613120802#1 613120802#2 392477218 392472585 -38079167 -1310875476 -392477217 -38079166#1 -38079166#0 -392477216 -1291315344 -226240910 -303942443#4 -303942443#3 -303942443#2 -303942443#1 -303942443#0 303942443#0 303942443#1 303942443#2 303942443#3 303942443#4 226240910 392477214 -38079169 -188516431 -38079168 -38351428#1 -38351428#0 38351435#0 38351435#1 38351429#0 38351429#1 38351432#0 38351432#1 -38369678#4">
        <stop busStop="CA_LA_ROCHELLE:VehicleJourney:C3348497.0" duration="10" until="0" /> 
        <stop busStop="CA_LA_ROCHELLE:VehicleJourney:C3348497.1" duration="10" until="60" /> 
        <stop busStop="CA_LA_ROCHELLE:VehicleJourney:C3348497.2" duration="10" until="95" /> 
        <stop busStop="CA_LA_ROCHELLE:VehicleJourney:C3348497.3" duration="10" until="147" /> 
        <stop busStop="CA_LA_ROCHELLE:VehicleJourney:C3348497.4" duration="10" until="240" /> 
        <stop busStop="CA_LA_ROCHELLE:VehicleJourney:C3348497.5" duration="10" until="322" /> 
        <stop busStop="CA_LA_ROCHELLE:VehicleJourney:C3348497.6" duration="10" until="374" /> 
        <stop busStop="CA_LA_ROCHELLE:VehicleJourney:C3348497.7" duration="10" until="480" /> 
        <stop busStop="CA_LA_ROCHELLE:VehicleJourney:C3348497.8" duration="10" until="536" /> 
        <stop busStop="CA_LA_ROCHELLE:VehicleJourney:C3348497.9" duration="10" until="567" /> 
        <stop busStop="CA_LA_ROCHELLE:VehicleJourney:C3348497.10" duration="10" until="612" /> 
        <stop busStop="CA_LA_ROCHELLE:VehicleJourney:C3348497.11" duration="10" until="675" /> 
        <stop busStop="CA_LA_ROCHELLE:VehicleJourney:C3348497.12" duration="10" until="735" /> 
        <stop busStop="CA_LA_ROCHELLE:VehicleJourney:C3348497.13" duration="10" until="780" /> 
        <stop busStop="CA_LA_ROCHELLE:VehicleJourney:C3348497.14" duration="10" until="996" /> 
        <stop busStop="CA_LA_ROCHELLE:VehicleJourney:C3348497.15" duration="10" until="1081" /> 
        <stop busStop="CA_LA_ROCHELLE:VehicleJourney:C3348497.16" duration="10" until="1167" /> 
        <stop busStop="CA_LA_ROCHELLE:VehicleJourney:C3348497.17" duration="10" until="1260" /> 
        <stop busStop="CA_LA_ROCHELLE:VehicleJourney:C3348497.18" duration="10" until="1500" /> 
        <stop busStop="CA_LA_ROCHELLE:VehicleJourney:C3348497.19" duration="10" until="1560" /> 
        <stop busStop="CA_LA_ROCHELLE:VehicleJourney:C3348497.20" duration="10" until="1646" /> 
        <stop busStop="CA_LA_ROCHELLE:VehicleJourney:C3348497.21" duration="10" until="1690" /> 
        <stop busStop="CA_LA_ROCHELLE:VehicleJourney:C3348497.22" duration="10" until="1800" /> 
        <stop busStop="CA_LA_ROCHELLE:VehicleJourney:C3348497.23" duration="10" until="1881" /> 
        <stop busStop="CA_LA_ROCHELLE:VehicleJourney:C3348497.24" duration="10" until="1952" /> 
        <stop busStop="CA_LA_ROCHELLE:VehicleJourney:C3348497.25" duration="10" until="2005" /> 
        <stop busStop="CA_LA_ROCHELLE:VehicleJourney:C3348497.26" duration="10" until="2100" /> 
        <stop busStop="CA_LA_ROCHELLE:VehicleJourney:C3348497.27" duration="10" until="2168" /> 
        <stop busStop="CA_LA_ROCHELLE:VehicleJourney:C3348497.28" duration="10" until="2232" /> 
        <stop busStop="CA_LA_ROCHELLE:VehicleJourney:C3348497.29" duration="10" until="2296" /> 
        <stop busStop="CA_LA_ROCHELLE:VehicleJourney:C3348497.30" duration="10" until="2407" /> 
        <stop busStop="CA_LA_ROCHELLE:VehicleJourney:C3348497.31" duration="10" until="2460" /> 
        <stop busStop="CA_LA_ROCHELLE:VehicleJourney:C3348497.32" duration="10" until="2483" /> 
        <stop busStop="CA_LA_ROCHELLE:VehicleJourney:C3348497.33" duration="10" until="2580" /> 
    </route>
    <route id="CA_LA_ROCHELLE:VehicleJourney:C3348498" edges="1291315332 201619237 305704989 449840049 305573317#3 305573317#4 305535425 367406284#0 367406284#1 469084821 -332649967#8 -332649967#7 -332649967#6 -332649967#5 -332649967#4 -332649967#3 -332649967#2 -332649967#1 -332649967#0 -305515951 -332649980 -367406285#4 -367406285#3 -367406285#2 -367406285#1 -367406285#0 -360582849#2 -360582849#1 -360582849#0 -332649971#3 -332649971#2 -332649971#1 -332649971#0 -332649976#15 -332649976#14 -332649976#13 -332649976#12 -332649976#11 -332649976#10 -332649976#9 -332649976#8 -332649976#7 -332649976#6 -332649976#5 -332649976#4 -332649976#3 -332649976#2 -332649976#1 -332649976#0 -291727814#1 -291727814#0 291727813#1 291727813#2 -332649982#1 -332649982#0 -71932835#4 -71932835#3 -71932835#2 -71932835#1 -71932835#0 24822323#0 24822323#1 24822323#2 47518302#6 47518302#7 305107612 360579834#0 360579834#1 360579834#2 433198445 433198442#0 433198442#1 433198442#2 736462186#0 736462186#1 736462186#2 736462185#0 736462185#1 360579833#0 360579833#1 360579833#2 360579835#0 360579835#1 360579835#2 305106200#4 739760386#0 739760386#1 739760383 46891985#0 46891985#1 46891985#2 46891985#3 46891985#4 46891985#5 433198448#0 433198448#1 433198451#0 433198451#1 171537702 739760340 71940852 305574142#0 305574142#1 305574142#2 305574142#3 1082208202 305574139 1082208201#0 1082208201#1 1082208201#2 1082208201#3 1082208201#4 749303426#0 749303426#1 749303426#2 305516237#0 305516237#1 1138955748 1085382097#0 1085382097#1 1085382097#2 305516238 40744248 749303418#0 749303418#1 749303419#0 749303419#1 749303419#2 40744246#5 40744246#6 40744246#7 433198456#0 433198456#1 433198456#2 433198458 40744245#0 40744245#1 40744245#2 40744245#3 40744245#4 40744245#5 40744245#6 40744245#7 40744245#8 749303405 40744252#0 40744252#1 40744252#2 749303403 433201992 1290291027#0 1290291027#1 -39695983#10 -39695983#9 -39695983#8 -39695983#7 -39695983#6 -39695983#5 -39695983#4 -39695983#3 -39695983#2 -39695983#1 -39695983#0 39695976#3 -39695979#2 -39695979#1 -39695979#0 39695978#0 39695978#1 39695978#2 39695969#2 39695969#3 39695969#4 39695969#5 39695969#6 291299103#0 291299103#1 354334370 39695963 354334371 304966169 1164663447 39544399 18897259#0 18897259#1 221045783 676065324 131650754 676065322#0 676065322#1 304961540#0 304961540#1 675167011 128271664#0 128271664#1 562009059#0 562009059#1 562009059#2 232032553#0 232032553#1 1296058758#0 1296058758#1 304487700 18886565 670514939 303915652#0 303915652#1 304797019#0 304797019#1 304797019#2 289724587#0 289724587#1 289724587#2 18886596 354634247#0 354634247#1 354634247#2 354634247#3 354634247#4 -293018007#3 -293018007#2 -293018007#1 -293018007#0 -18891442 -304762331#1 -304762331#0 18890627#0 18890627#1 246487529 391202775 391202772 758598879#0 758598879#1 246490249 -758598878#0 -1302273601 1302273601 758598878#0 758598878#1 758598878#2 1293303348 323266583 246487527#0 246487527#1 565154358#0 565154358#1 565154358#2 304054896 -303428261#1 -303428261#0 -676384854 -676384858 -676384860#1 -676384860#0 -23062681#5 -23062681#4 -23062681#3 -23062681#2 -23062681#1 -23062681#0 -304099706#2 -304099706#1 -304099706#0 -154888167#9 -154888167#8 -154888167#7 -154888167#6 -154888167#5 -154888167#4 -154888167#3 -154888167#2 -154888167#1 -154888167#0 -354878246#5 -354878246#4 -354878246#3 -354878246#2 -354878246#1 -354878246#0 1171724861#0 1171724861#1 23062633 1171724870 1171724871 397092950#0 397092950#1 738448002 354878245#0 354878245#1 -1171724864 -1125028428 -1125028429 -256000778#9 -256000778#8 -256000778#7 -256000778#6 -256000778#5 -256000778#4 -256000778#3 -256000778#2 -256000778#1 -256000778#0 1361775660 256000781#5 256000781#6 256000781#0 -256000779 256000782#1 256000782#2 -68254507#4 -68254507#3 -68254507#2 -68254507#1 -68254507#0 -1363408878#2 -1363408878#1 -1363408878#0 68254509 1080851840#3 68254494 -1454203738#1 -1454203738#0 -38369675#2 -38369675#1 -38369675#0 -38369672 981239087#0 981239087#1 981239087#2 981239087#3 1291315343#0 1291315343#1 1291315343#2 1291315343#3 1291315343#4 1291315343#5 1291315343#6 1291315343#7 981239088#0 981239088#1 981239088#2 981239088#3 981239088#4 981239089 38351395#0 38351395#1 38351395#2 38351395#3 38351395#4 38351395#5 38351395#6 38351395#7 38351395#8 38351395#9 38351395#10 38351395#11 38351395#12 180982908#0 180982908#1 1291315341#0 1291315341#1 303942643#2 303942643#3 303942643#4 303942643#5 613120802#0 613120802#1 613120802#2 392477218 392472585 -38079167 -1310875476 -392477217 -38079166#1 -38079166#0 -392477216 -1291315344 -226240910 -303942443#4 -303942443#3 -303942443#2 -303942443#1 -303942443#0 1291315345">
        <stop busStop="CA_LA_ROCHELLE:VehicleJourney:C3348497.0" duration="10" until="0" /> 
        <stop busStop="CA_LA_ROCHELLE:VehicleJourney:C3348497.1" duration="10" until="60" /> 
        <stop busStop="CA_LA_ROCHELLE:VehicleJourney:C3348497.2" duration="10" until="95" /> 
        <stop busStop="CA_LA_ROCHELLE:VehicleJourney:C3348497.3" duration="10" until="147" /> 
        <stop busStop="CA_LA_ROCHELLE:VehicleJourney:C3348497.4" duration="10" until="240" /> 
        <stop busStop="CA_LA_ROCHELLE:VehicleJourney:C3348497.5" duration="10" until="322" /> 
        <stop busStop="CA_LA_ROCHELLE:VehicleJourney:C3348497.6" duration="10" until="374" /> 
        <stop busStop="CA_LA_ROCHELLE:VehicleJourney:C3348497.7" duration="10" until="480" /> 
        <stop busStop="CA_LA_ROCHELLE:VehicleJourney:C3348497.8" duration="10" until="536" /> 
        <stop busStop="CA_LA_ROCHELLE:VehicleJourney:C3348497.9" duration="10" until="567" /> 
        <stop busStop="CA_LA_ROCHELLE:VehicleJourney:C3348497.10" duration="10" until="612" /> 
        <stop busStop="CA_LA_ROCHELLE:VehicleJourney:C3348497.11" duration="10" until="675" /> 
        <stop busStop="CA_LA_ROCHELLE:VehicleJourney:C3348497.12" duration="10" until="735" /> 
        <stop busStop="CA_LA_ROCHELLE:VehicleJourney:C3348497.13" duration="10" until="780" /> 
        <stop busStop="CA_LA_ROCHELLE:VehicleJourney:C3348497.14" duration="10" until="996" /> 
        <stop busStop="CA_LA_ROCHELLE:VehicleJourney:C3348497.15" duration="10" until="1081" /> 
        <stop busStop="CA_LA_ROCHELLE:VehicleJourney:C3348497.16" duration="10" until="1167" /> 
        <stop busStop="CA_LA_ROCHELLE:VehicleJourney:C3348497.17" duration="10" until="1260" /> 
        <stop busStop="CA_LA_ROCHELLE:VehicleJourney:C3348497.18" duration="10" until="1500" /> 
        <stop busStop="CA_LA_ROCHELLE:VehicleJourney:C3348497.19" duration="10" until="1560" /> 
        <stop busStop="CA_LA_ROCHELLE:VehicleJourney:C3348497.20" duration="10" until="1646" /> 
        <stop busStop="CA_LA_ROCHELLE:VehicleJourney:C3348497.21" duration="10" until="1690" /> 
        <stop busStop="CA_LA_ROCHELLE:VehicleJourney:C3348497.22" duration="10" until="1800" /> 
        <stop busStop="CA_LA_ROCHELLE:VehicleJourney:C3348497.23" duration="10" until="1881" /> 
        <stop busStop="CA_LA_ROCHELLE:VehicleJourney:C3348497.24" duration="10" until="1952" /> 
        <stop busStop="CA_LA_ROCHELLE:VehicleJourney:C3348497.25" duration="10" until="2005" /> 
        <stop busStop="CA_LA_ROCHELLE:VehicleJourney:C3348497.26" duration="10" until="2100" /> 
        <stop busStop="CA_LA_ROCHELLE:VehicleJourney:C3348497.27" duration="10" until="2168" /> 
        <stop busStop="CA_LA_ROCHELLE:VehicleJourney:C3348497.28" duration="10" until="2232" /> 
        <stop busStop="CA_LA_ROCHELLE:VehicleJourney:C3348497.29" duration="10" until="2296" /> 
        <stop busStop="CA_LA_ROCHELLE:VehicleJourney:C3348497.30" duration="10" until="2407" /> 
        <stop busStop="CA_LA_ROCHELLE:VehicleJourney:C3348498.31" duration="10" until="2460" /> 
    </route>
    <route id="CA_LA_ROCHELLE:VehicleJourney:C3348499" edges="1291315332 201619237 305704989 449840049 305573317#3 305573317#4 305535425 367406284#0 367406284#1 469084821 -332649967#8 -332649967#7 -332649967#6 -332649967#5 -332649967#4 -332649967#3 -332649967#2 -332649967#1 -332649967#0 -305515951 -332649980 -367406285#4 -367406285#3 -367406285#2 -367406285#1 -367406285#0 -360582849#2 -360582849#1 -360582849#0 -332649971#3 -332649971#2 -332649971#1 -332649971#0 -332649976#15 -332649976#14 -332649976#13 -332649976#12 -332649976#11 -332649976#10 -332649976#9 -332649976#8 -332649976#7 -332649976#6 -332649976#5 -332649976#4 -332649976#3 -332649976#2 -332649976#1 -332649976#0 -291727814#1 -291727814#0 291727813#1 291727813#2 -332649982#1 -332649982#0 -71932835#4 -71932835#3 -71932835#2 -71932835#1 -71932835#0 24822323#0 24822323#1 24822323#2 47518302#6 47518302#7 305107612 360579834#0 360579834#1 360579834#2 433198445 433198442#0 433198442#1 433198442#2 736462186#0 736462186#1 736462186#2 736462185#0 736462185#1 360579833#0 360579833#1 360579833#2 360579835#0 360579835#1 360579835#2 305106200#4 739760386#0 739760386#1 739760383 46891985#0 46891985#1 46891985#2 46891985#3 46891985#4 46891985#5 433198448#0 433198448#1 433198451#0 433198451#1 171537702 739760340 71940852 305574142#0 305574142#1 305574142#2 305574142#3 1082208202 305574139 1082208201#0 1082208201#1 1082208201#2 1082208201#3 1082208201#4 749303426#0 749303426#1 749303426#2 305516237#0 305516237#1 1138955748 1085382097#0 1085382097#1 1085382097#2 305516238 40744248 749303418#0 749303418#1 749303419#0 749303419#1 749303419#2 40744246#5 40744246#6 40744246#7 433198456#0 433198456#1 433198456#2 433198458 40744245#0 40744245#1 40744245#2 40744245#3 40744245#4 40744245#5 40744245#6 40744245#7 40744245#8 749303405 40744252#0 40744252#1 40744252#2 749303403 433201992 1290291027#0 1290291027#1 -39695983#10 -39695983#9 -39695983#8 -39695983#7 -39695983#6 -39695983#5 -39695983#4 -39695983#3 -39695983#2 -39695983#1 -39695983#0 39695976#3 -39695979#2 -39695979#1 -39695979#0 39695978#0 39695978#1 39695978#2 39695969#2 39695969#3 39695969#4 39695969#5 39695969#6 291299103#0 291299103#1 354334370 39695963 354334371 304966169 1164663447 39544399 18897259#0 18897259#1 221045783 676065324 131650754 676065322#0 676065322#1 304961540#0 304961540#1 675167011 128271664#0 128271664#1 562009059#0 562009059#1 562009059#2 232032553#0 232032553#1 1296058758#0 1296058758#1 304487700 18886565 670514939 303915652#0 303915652#1 304797019#0 304797019#1 304797019#2 289724587#0 289724587#1 289724587#2 18886596 354634247#0 354634247#1 354634247#2 354634247#3 354634247#4 -293018007#3 -293018007#2 -293018007#1 -293018007#0 -18891442 -304762331#1 -304762331#0 18890627#0 18890627#1 246487529 391202775 391202772 758598879#0 758598879#1 246490249 -758598878#0 -1302273601 1302273601 758598878#0 758598878#1 758598878#2 1293303348 323266583 246487527#0 246487527#1 565154358#0 565154358#1 565154358#2 304054896 -303428261#1 -303428261#0 -676384854 -676384858 -676384860#1 -676384860#0 -23062681#5 -23062681#4 -23062681#3 -23062681#2 -23062681#1 -23062681#0 -304099706#2 -304099706#1 -304099706#0 -154888167#9 -154888167#8 -154888167#7 -154888167#6 -154888167#5 -154888167#4 -154888167#3 -154888167#2 -154888167#1 -154888167#0 -354878246#5 -354878246#4 -354878246#3 -354878246#2 -354878246#1 -354878246#0 1171724861#0 1171724861#1 23062633 1171724870 1171724871 397092950#0 397092950#1 738448002 354878245#0 354878245#1 -1171724864 -1125028428 -1125028429 -256000778#9 -256000778#8 -256000778#7 -256000778#6 -256000778#5 -256000778#4 -256000778#3 -256000778#2 -256000778#1 -256000778#0 1361775660 256000781#5 256000781#6 256000781#0 -256000779 256000782#1 256000782#2 -68254507#4 -68254507#3 -68254507#2 -68254507#1 -68254507#0 -1363408878#2 -1363408878#1 -1363408878#0 68254509 1080851840#3 1080851840#4 1080851840#5 1454203735 68254506 68254499#0 68254499#1 68254499#2 68254499#3 68254499#4 392621417 898068669 572218970 38417679 392621413#0 392621413#1 392621408 38417675#0 38417675#1 392621411 1080851845#0 1080851845#1 38369646#0 38369646#1 1080851850#7 38369623 38369627#0 38369627#1 38369627#2 38369627#3 38369627#4 38369627#5 304090436#0 304090436#1 304090436#2 304090436#3 304090436#4 304090436#5 304090436#6 304090436#7 304090436#8 304090436#9 304090436#10 304090436#11 304090436#12 304090436#13 304090436#14 304090436#15 304090436#16 1200858876#0 1200858876#1 1200858876#2 1200858876#3 354887451#0 354887451#1 1304672441 354887452#0 354887452#1 354887452#2 304090029#0 304090029#1 -23001986#1 -23001986#0 1290291029#0 1290291029#1 1290291029#2 1290291029#3 1290291029#4 1290291029#5">
        <stop busStop="CA_LA_ROCHELLE:VehicleJourney:C3348497.0" duration="10" until="0" /> 
        <stop busStop="CA_LA_ROCHELLE:VehicleJourney:C3348497.1" duration="10" until="60" /> 
        <stop busStop="CA_LA_ROCHELLE:VehicleJourney:C3348497.2" duration="10" until="95" /> 
        <stop busStop="CA_LA_ROCHELLE:VehicleJourney:C3348497.3" duration="10" until="147" /> 
        <stop busStop="CA_LA_ROCHELLE:VehicleJourney:C3348497.4" duration="10" until="240" /> 
        <stop busStop="CA_LA_ROCHELLE:VehicleJourney:C3348497.5" duration="10" until="322" /> 
        <stop busStop="CA_LA_ROCHELLE:VehicleJourney:C3348497.6" duration="10" until="374" /> 
        <stop busStop="CA_LA_ROCHELLE:VehicleJourney:C3348497.7" duration="10" until="480" /> 
        <stop busStop="CA_LA_ROCHELLE:VehicleJourney:C3348497.8" duration="10" until="536" /> 
        <stop busStop="CA_LA_ROCHELLE:VehicleJourney:C3348497.9" duration="10" until="567" /> 
        <stop busStop="CA_LA_ROCHELLE:VehicleJourney:C3348497.10" duration="10" until="612" /> 
        <stop busStop="CA_LA_ROCHELLE:VehicleJourney:C3348497.11" duration="10" until="675" /> 
        <stop busStop="CA_LA_ROCHELLE:VehicleJourney:C3348497.12" duration="10" until="735" /> 
        <stop busStop="CA_LA_ROCHELLE:VehicleJourney:C3348497.13" duration="10" until="780" /> 
        <stop busStop="CA_LA_ROCHELLE:VehicleJourney:C3348497.14" duration="10" until="996" /> 
        <stop busStop="CA_LA_ROCHELLE:VehicleJourney:C3348497.15" duration="10" until="1081" /> 
        <stop busStop="CA_LA_ROCHELLE:VehicleJourney:C3348497.16" duration="10" until="1167" /> 
        <stop busStop="CA_LA_ROCHELLE:VehicleJourney:C3348497.17" duration="10" until="1260" /> 
        <stop busStop="CA_LA_ROCHELLE:VehicleJourney:C3348497.18" duration="10" until="1500" /> 
        <stop busStop="CA_LA_ROCHELLE:VehicleJourney:C3348497.19" duration="10" until="1560" /> 
        <stop busStop="CA_LA_ROCHELLE:VehicleJourney:C3348497.20" duration="10" until="1646" /> 
        <stop busStop="CA_LA_ROCHELLE:VehicleJourney:C3348497.21" duration="10" until="1690" /> 
        <stop busStop="CA_LA_ROCHELLE:VehicleJourney:C3348497.22" duration="10" until="1800" /> 
        <stop busStop="CA_LA_ROCHELLE:VehicleJourney:C3348497.23" duration="10" until="1882" /> 
        <stop busStop="CA_LA_ROCHELLE:VehicleJourney:C3348497.24" duration="10" until="1953" /> 
        <stop busStop="CA_LA_ROCHELLE:VehicleJourney:C3348499.25" duration="10" until="2011" /> 
        <stop busStop="CA_LA_ROCHELLE:VehicleJourney:C3348499.26" duration="10" until="2127" /> 
        <stop busStop="CA_LA_ROCHELLE:VehicleJourney:C3348499.27" duration="10" until="2160" /> 
        <stop busStop="CA_LA_ROCHELLE:VehicleJourney:C3348499.28" duration="10" until="2202" /> 
        <stop busStop="CA_LA_ROCHELLE:VehicleJourney:C3348499.29" duration="10" until="2240" /> 
        <stop busStop="CA_LA_ROCHELLE:VehicleJourney:C3348499.30" duration="10" until="2277" /> 
        <stop busStop="CA_LA_ROCHELLE:VehicleJourney:C3348499.31" duration="10" until="2334" /> 
        <stop busStop="CA_LA_ROCHELLE:VehicleJourney:C3348499.32" duration="10" until="2400" /> 
        <stop busStop="CA_LA_ROCHELLE:VehicleJourney:C3348499.33" duration="10" until="2520" /> 
    </route>
    <route id="CA_LA_ROCHELLE:VehicleJourney:C3348500" edges="1290291029#5 1304672442#0 1304672442#1 1304672442#2 1304672442#3 22998177#0 22998177#1 22998177#2 22998177#3 22998177#4 22998177#5 310056237#3 310056237#4 -354887451#1 -354887451#0 -1200858876#3 -1200858876#2 -1200858876#1 -1200858876#0 -304090436#16 -304090436#15 -304090436#14 -304090436#13 -304090436#12 -304090436#11 -304090436#10 -304090436#9 -304090436#8 -304090436#7 -304090436#6 -304090436#5 -304090436#4 -304090436#3 -304090436#2 -304090436#1 -304090436#0 -38369627#5 -38369627#4 -38369627#3 -38369627#2 -38369627#1 -38369627#0 38369620 1080851850#1 1080851850#2 1080851850#3 1080851850#4 1080851850#5 38369649#0 38369649#1 -1080851845#1 -1080851845#0 -392621411 392621412#0 392621412#1 392621416#0 392621416#1 572218968 392621410 392621418 572218969 -68254499#4 -68254499#3 -68254499#2 -68254499#1 -68254499#0 68254502 1454203737 1080851840#0 1080851840#1 68254510 1363408878#0 1363408878#1 1363408878#2 68254507#0 68254507#1 68254507#2 68254507#3 68254507#4 256000782#3 256000782#0 256000779 256000781#1 256000781#2 256000781#3 1361775661 256000778#0 256000778#1 256000778#2 256000778#3 256000778#4 256000778#5 256000778#6 256000778#7 256000778#8 256000778#9 1125028429 1125028428 1171724864 1171724865#0 1171724865#1 1171724869 397092953#0 397092953#1 1171724862#0 1171724862#1 354878246#0 354878246#1 354878246#2 354878246#3 354878246#4 354878246#5 154888167#0 154888167#1 154888167#2 154888167#3 154888167#4 154888167#5 154888167#6 154888167#7 154888167#8 154888167#9 304099706#0 304099706#1 304099706#2 23062681#0 23062681#1 23062681#2 23062681#3 23062681#4 23062681#5 676384860#0 676384860#1 676384858 676384854 303428261#0 303428261#1 111866486#0 111866486#1 111866486#2 18902943 391202774 246487526 391202772 758598879#0 758598879#1 758598879#2 1302273595 1292960399 1303090334 1302499281 303938919 246490260#0 246490260#1 246488628 304507682 18895057 1421713574 354634246#0 354634246#1 354634246#2 18891443#0 18891443#1 18891443#2 18891443#3 18886563#0 18886563#1 18899756#0 18899756#1 18899756#2 18899756#3 18899756#4 18899756#5 18898623#2 18898623#3 354586057#0 354586057#1 354586057#2 354586057#3 354586057#4 842716358#0 842716358#1 842716358#2 521295205 128271664#0 128271664#1 562009059#0 562009059#1 562009059#2 304762332#0 304762332#1 304762332#2 18895051#0 18895051#1 123232947 232032543 304762330#0 304762330#1 563857868#0 563857868#1 1304677257#0 1304677257#1 164387779#0 164387779#1 164387779#2 676065323#0 676065323#1 304762749 -221045783 -18897259#1 -18897259#0 -39544399 -1164663447 -304966169 -354334371 -39695963 39695971 1299456786#0 1299456786#1 39695969#9 39695969#10 39695969#0 39695977#0 39695977#1 39695979#0 39695979#1 39695979#2 39695976#0 39695976#1 39695976#2 39695983#0 39695983#1 39695983#2 39695983#3 39695983#4 39695983#5 39695983#6 39695983#7 39695983#8 39695983#9 39695983#10 -1290291027#1 -1290291027#0 433201993 749303398 749303399 -749303403 -40744252#2 -40744252#1 -40744252#0 749303404 40744253#0 40744253#1 40744253#2 40744253#3 40744253#4 40744253#5 40744253#6 40744253#7 40744253#8 40744253#9 40744253#10 40744253#11 40744253#12 40744253#13 40744253#14 40744253#15 40744253#16 40744246#1 40744246#2 40744246#3 40744247#0 40744247#1 40744247#2 458963272 458963270 458963271 71940848#0 71940848#1 -305516238 -1085382097#2 -1085382097#1 -1085382097#0 -1138955748 -305516237#1 -305516237#0 -749303426#2 -749303426#1 -749303426#0 -1082208201#4 -1082208201#3 -1082208201#2 -1082208201#1 -1082208201#0 -305574139 305574136 1082208204#0 1082208204#1 1082208204#2 1082208204#3 1082208204#4 1082208200 -71940852 -739760340 -171537702 739760339 171537703#0 171537703#1 171537703#2 171537703#3 171537703#4 171537703#5 171537703#6 171537703#7 171537703#8 171537703#9 171537703#10 171537703#11 305106200#1 305106200#2 305573627#0 305573627#1 360579836#0 360579836#1 360579836#2 360579836#3 47518302#1 47518302#2 47518302#3 47518302#4 71932836#0 71932836#1 71932835#0 71932835#1 71932835#2 71932835#3 71932835#4 332649982#0 332649982#1 291727813#3 291727813#4 291727813#0 291727814#0 291727814#1 332649976#0 332649976#1 332649976#2 332649976#3 332649976#4 332649976#5 332649976#6 332649976#7 332649976#8 332649976#9 332649976#10 332649976#11 332649976#12 332649976#13 332649976#14 332649976#15 332649971#0 332649971#1 332649971#2 332649971#3 360582849#0 360582849#1 360582849#2 367406285#0 367406285#1 367406285#2 367406285#3 367406285#4 332649980 305515951 332649967#0 332649967#1 332649967#2 332649967#3 332649967#4 332649967#5 332649967#6 332649967#7 332649967#8 469084820 305535426#0 305535426#1 367406287 305573317#0 305573317#1 201619236 538791384 449840053#0 449840053#1 449840053#2 -1291315332 -201620868#1 -201620868#0 -457932971 201620869 1291315333">
        <stop busStop="CA_LA_ROCHELLE:VehicleJourney:C3348499.33" duration="10" until="0" /> 
        <stop busStop="CA_LA_ROCHELLE:VehicleJourney:C3348500.1" duration="10" until="70" /> 
        <stop busStop="CA_LA_ROCHELLE:VehicleJourney:C3348500.2" duration="10" until="137" /> 
        <stop busStop="CA_LA_ROCHELLE:VehicleJourney:C3348500.3" duration="10" until="198" /> 
        <stop busStop="CA_LA_ROCHELLE:VehicleJourney:C3348500.4" duration="10" until="245" /> 
        <stop busStop="CA_LA_ROCHELLE:VehicleJourney:C3348500.5" duration="10" until="300" /> 
        <stop busStop="CA_LA_ROCHELLE:VehicleJourney:C3348500.6" duration="10" until="346" /> 
        <stop busStop="CA_LA_ROCHELLE:VehicleJourney:C3348500.7" duration="10" until="489" /> 
        <stop busStop="CA_LA_ROCHELLE:VehicleJourney:C3348500.8" duration="10" until="556" /> 
        <stop busStop="CA_LA_ROCHELLE:VehicleJourney:C3348500.9" duration="10" until="644" /> 
        <stop busStop="CA_LA_ROCHELLE:VehicleJourney:C3348500.10" duration="10" until="780" /> 
        <stop busStop="CA_LA_ROCHELLE:VehicleJourney:C3348500.11" duration="10" until="873" /> 
        <stop busStop="CA_LA_ROCHELLE:VehicleJourney:C3348500.12" duration="10" until="926" /> 